
  MOE2010           3D

 47 50  0  0  1  0  0  0  0  0999 V2000
   12.4040   17.0320   20.7590 C   0  0  0  0  0  0  0  0  0  0  0  0
   11.8490   15.9890   21.2580 H   0  0  0  0  0  0  0  0  0  0  0  0
   13.5060   16.5920   20.3080 H   0  0  0  0  0  0  0  0  0  0  0  0
   11.9020   17.4860   20.2880 N   0  0  0  0  0  0  0  0  0  0  0  0
   12.6780   17.3310   21.4780 C   0  0  0  0  0  0  0  0  0  0  0  0
   13.8250   17.3070   21.6690 H   0  0  0  0  0  0  0  0  0  0  0  0
   12.7040   16.6390   22.4050 H   0  0  0  0  0  0  0  0  0  0  0  0
   11.6740   18.2390   20.5350 C   0  0  0  0  0  0  0  0  0  0  0  0
   12.4500   18.0840   21.7240 O   0  0  0  0  0  0  0  0  0  0  0  0
   11.9470   18.5380   21.2530 C   0  0  0  0  0  0  0  0  0  0  0  0
   11.0840   18.9600   21.9220 H   0  0  0  0  0  0  0  0  0  0  0  0
   12.3990   19.6130   21.1490 H   0  0  0  0  0  0  0  0  0  0  0  0
   11.0810   16.5880   18.1320 C   0  0  0  0  0  0  0  0  0  0  0  0
   10.5450   16.7960   18.7240 C   0  0  0  0  0  0  0  0  0  0  0  0
    9.5890   16.2090   19.3100 H   0  0  0  0  0  0  0  0  0  0  0  0
   11.8910   16.6790   18.2590 C   0  0  0  0  0  0  0  0  0  0  0  0
   12.8440   16.7490   17.5140 H   0  0  0  0  0  0  0  0  0  0  0  0
   10.8180   17.0950   19.4420 C   0  0  0  0  0  0  0  0  0  0  0  0
    9.9680   18.1280   19.2990 H   0  0  0  0  0  0  0  0  0  0  0  0
   12.1650   16.9790   18.9780 C   0  0  0  0  0  0  0  0  0  0  0  0
   13.3740   16.7710   18.8940 H   0  0  0  0  0  0  0  0  0  0  0  0
   11.6280   17.1860   19.5690 C   0  0  0  0  0  0  0  0  0  0  0  0
   11.1710   18.6930   20.0630 O   0  0  0  0  0  0  0  0  0  0  0  0
   10.8070   16.2890   17.4140 N   0  0  0  0  0  0  0  0  0  0  0  0
   10.1170   15.8500   17.3020 C   0  0  0  0  0  0  0  0  0  0  0  0
   11.1740   16.3750   16.6810 C   0  0  0  0  0  0  0  0  0  0  0  0
   10.9390   17.7120   16.4630 H   0  0  0  0  0  0  0  0  0  0  0  0
   12.4680   16.0150   16.6660 H   0  0  0  0  0  0  0  0  0  0  0  0
   10.0590   15.6660   16.5010 O   0  0  0  0  0  0  0  0  0  0  0  0
   10.7130   15.9910   16.1170 C   0  0  1  0  0  0  0  0  0  0  0  0
   11.3690   14.8020   16.2050 H   0  0  0  0  0  0  0  0  0  0  0  0
    9.5800   15.6340   17.8900 O   0  0  0  0  0  0  0  0  0  0  0  0
   10.8760   15.9400   15.3090 C   0  0  0  0  0  0  0  0  0  0  0  0
    9.6960   15.8030   14.8310 H   0  0  0  0  0  0  0  0  0  0  0  0
   11.0920   14.6820   15.0180 H   0  0  0  0  0  0  0  0  0  0  0  0
   11.2590   16.5600   14.9260 N   0  0  0  0  0  0  0  0  0  0  0  0
   12.0810   17.0010   15.5100 H   0  0  0  0  0  0  0  0  0  0  0  0
   10.8190   17.1710   14.5870 C   0  0  0  0  0  0  0  0  0  0  0  0
   10.9040   18.2300   13.5710 S   0  0  0  0  0  0  0  0  0  0  0  0
   11.4690   18.7930   13.3600 C   0  0  0  0  0  0  0  0  0  0  0  0
   11.2030   17.7910   14.2030 C   0  0  0  0  0  0  0  0  0  0  0  0
   12.1180   18.7020   13.8630 C   0  0  0  0  0  0  0  0  0  0  0  0
   13.1450   19.2830   13.9130 H   0  0  0  0  0  0  0  0  0  0  0  0
   11.9530   18.0840   14.3830 C   0  0  0  0  0  0  0  0  0  0  0  0
   12.9070   17.8590   15.0190 H   0  0  0  0  0  0  0  0  0  0  0  0
    9.9960   17.1600   14.6320 O   0  0  0  0  0  0  0  0  0  0  0  0
   11.3990   19.3480   12.7550 Cl  0  0  0  0  0  0  0  0  0  0  0  0
  1  2  1  0  0  0  0
  1  3  1  0  0  0  0
  1  4  1  0  0  0  0
  1  5  1  0  0  0  0
  4  8  1  0  0  0  0
  4 22  1  0  0  0  0
  5  6  1  0  0  0  0
  5  7  1  0  0  0  0
  5  9  1  0  0  0  0
  8 10  1  0  0  0  0
  8 23  2  0  0  0  0
  9 10  1  0  0  0  0
 10 11  1  0  0  0  0
 10 12  1  0  0  0  0
 13 14  2  0  0  0  0
 13 16  1  0  0  0  0
 13 24  1  0  0  0  0
 14 15  1  0  0  0  0
 14 18  1  0  0  0  0
 16 17  1  0  0  0  0
 16 20  2  0  0  0  0
 18 19  1  0  0  0  0
 18 22  2  0  0  0  0
 20 21  1  0  0  0  0
 20 22  1  0  0  0  0
 24 25  1  0  0  0  0
 24 26  1  0  0  0  0
 25 29  1  0  0  0  0
 25 32  2  0  0  0  0
 26 27  1  0  0  0  0
 26 28  1  0  0  0  0
 26 30  1  0  0  0  0
 29 30  1  0  0  0  0
 30 31  1  0  0  0  0
 30 33  1  0  0  0  0
 33 34  1  0  0  0  0
 33 35  1  0  0  0  0
 33 36  1  0  0  0  0
 36 37  1  0  0  0  0
 36 38  1  0  0  0  0
 38 41  1  0  0  0  0
 38 46  2  0  0  0  0
 39 40  1  0  0  0  0
 39 41  1  0  0  0  0
 40 42  2  0  0  0  0
 40 47  1  0  0  0  0
 41 44  2  0  0  0  0
 42 43  1  0  0  0  0
 42 44  1  0  0  0  0
 44 45  1  0  0  0  0
M  END
>  <mseq>
1

>  <S>
-12.329266

>  <E_conf>
1.7861387

>  <E_place>
-149.10672

>  <E_score1>
-12.329266

$$$$

  MOE2010           3D

 47 50  0  0  1  0  0  0  0  0999 V2000
   10.6460   20.1340   15.6880 C   0  0  0  0  0  0  0  0  0  0  0  0
   10.1990   19.1160   15.0490 H   0  0  0  0  0  0  0  0  0  0  0  0
    9.6010   20.6550   16.1820 H   0  0  0  0  0  0  0  0  0  0  0  0
   11.3050   19.9720   16.1580 N   0  0  0  0  0  0  0  0  0  0  0  0
   10.7220   20.6200   15.0250 C   0  0  0  0  0  0  0  0  0  0  0  0
    9.9860   21.5130   14.9250 H   0  0  0  0  0  0  0  0  0  0  0  0
   10.1900   20.3210   14.0410 H   0  0  0  0  0  0  0  0  0  0  0  0
   12.0390   20.2950   15.9650 C   0  0  0  0  0  0  0  0  0  0  0  0
   11.4570   20.9430   14.8330 O   0  0  0  0  0  0  0  0  0  0  0  0
   12.1150   20.7800   15.3030 C   0  0  0  0  0  0  0  0  0  0  0  0
   13.0020   20.4580   14.6100 H   0  0  0  0  0  0  0  0  0  0  0  0
   12.6620   21.7870   15.5440 H   0  0  0  0  0  0  0  0  0  0  0  0
   11.0760   18.5150   18.1460 C   0  0  0  0  0  0  0  0  0  0  0  0
   11.8100   18.8390   17.9530 C   0  0  0  0  0  0  0  0  0  0  0  0
   12.9720   18.3710   17.7690 H   0  0  0  0  0  0  0  0  0  0  0  0
   10.4180   18.6780   17.6760 C   0  0  0  0  0  0  0  0  0  0  0  0
    9.2230   18.6050   17.8680 H   0  0  0  0  0  0  0  0  0  0  0  0
   11.8870   19.3240   17.2910 C   0  0  0  0  0  0  0  0  0  0  0  0
   12.4850   20.2410   18.0720 H   0  0  0  0  0  0  0  0  0  0  0  0
   10.4940   19.1630   17.0130 C   0  0  0  0  0  0  0  0  0  0  0  0
    9.4090   19.0040   16.4570 H   0  0  0  0  0  0  0  0  0  0  0  0
   11.2290   19.4860   16.8210 C   0  0  0  0  0  0  0  0  0  0  0  0
   12.6970   20.1330   16.4360 O   0  0  0  0  0  0  0  0  0  0  0  0
   11.0000   18.0300   18.8090 N   0  0  0  0  0  0  0  0  0  0  0  0
   10.4600   17.4120   18.8980 C   0  0  0  0  0  0  0  0  0  0  0  0
   11.4490   18.0760   19.4990 C   0  0  0  0  0  0  0  0  0  0  0  0
   12.6490   17.6050   19.0220 H   0  0  0  0  0  0  0  0  0  0  0  0
   11.4960   19.3020   20.0460 H   0  0  0  0  0  0  0  0  0  0  0  0
   10.5760   17.0780   19.6430 O   0  0  0  0  0  0  0  0  0  0  0  0
   11.1880   17.4880   20.0140 C   0  0  1  0  0  0  0  0  0  0  0  0
   10.2840   18.2760   20.6570 H   0  0  0  0  0  0  0  0  0  0  0  0
    9.9020   17.1720   18.3400 O   0  0  0  0  0  0  0  0  0  0  0  0
   11.4860   17.3370   20.7680 C   0  0  0  0  0  0  0  0  0  0  0  0
   11.2130   16.0920   20.8930 H   0  0  0  0  0  0  0  0  0  0  0  0
   10.5380   17.5860   21.6370 H   0  0  0  0  0  0  0  0  0  0  0  0
   12.2840   17.4620   20.9290 N   0  0  0  0  0  0  0  0  0  0  0  0
   12.7370   16.6770   21.5550 H   0  0  0  0  0  0  0  0  0  0  0  0
   12.5410   18.1970   21.2020 C   0  0  0  0  0  0  0  0  0  0  0  0
   13.8260   18.8820   21.0010 S   0  0  0  0  0  0  0  0  0  0  0  0
   14.5800   18.8140   21.3270 C   0  0  0  0  0  0  0  0  0  0  0  0
   13.3400   18.3210   21.3620 C   0  0  0  0  0  0  0  0  0  0  0  0
   14.5610   18.2120   21.8910 C   0  0  0  0  0  0  0  0  0  0  0  0
   15.4090   17.7750   22.5870 H   0  0  0  0  0  0  0  0  0  0  0  0
   13.7950   17.9070   21.9120 C   0  0  0  0  0  0  0  0  0  0  0  0
   13.7780   16.9730   22.6130 H   0  0  0  0  0  0  0  0  0  0  0  0
   11.9980   18.8080   21.3130 O   0  0  0  0  0  0  0  0  0  0  0  0
   15.2390   19.2690   21.1260 Cl  0  0  0  0  0  0  0  0  0  0  0  0
  1  2  1  0  0  0  0
  1  3  1  0  0  0  0
  1  4  1  0  0  0  0
  1  5  1  0  0  0  0
  4  8  1  0  0  0  0
  4 22  1  0  0  0  0
  5  6  1  0  0  0  0
  5  7  1  0  0  0  0
  5  9  1  0  0  0  0
  8 10  1  0  0  0  0
  8 23  2  0  0  0  0
  9 10  1  0  0  0  0
 10 11  1  0  0  0  0
 10 12  1  0  0  0  0
 13 14  2  0  0  0  0
 13 16  1  0  0  0  0
 13 24  1  0  0  0  0
 14 15  1  0  0  0  0
 14 18  1  0  0  0  0
 16 17  1  0  0  0  0
 16 20  2  0  0  0  0
 18 19  1  0  0  0  0
 18 22  2  0  0  0  0
 20 21  1  0  0  0  0
 20 22  1  0  0  0  0
 24 25  1  0  0  0  0
 24 26  1  0  0  0  0
 25 29  1  0  0  0  0
 25 32  2  0  0  0  0
 26 27  1  0  0  0  0
 26 28  1  0  0  0  0
 26 30  1  0  0  0  0
 29 30  1  0  0  0  0
 30 31  1  0  0  0  0
 30 33  1  0  0  0  0
 33 34  1  0  0  0  0
 33 35  1  0  0  0  0
 33 36  1  0  0  0  0
 36 37  1  0  0  0  0
 36 38  1  0  0  0  0
 38 41  1  0  0  0  0
 38 46  2  0  0  0  0
 39 40  1  0  0  0  0
 39 41  1  0  0  0  0
 40 42  2  0  0  0  0
 40 47  1  0  0  0  0
 41 44  2  0  0  0  0
 42 43  1  0  0  0  0
 42 44  1  0  0  0  0
 44 45  1  0  0  0  0
M  END
>  <mseq>
1

>  <S>
-12.232953

>  <E_conf>
0.84034193

>  <E_place>
-120.05811

>  <E_score1>
-12.232953

$$$$

  MOE2010           3D

 47 50  0  0  1  0  0  0  0  0999 V2000
    9.4940   15.6870   16.7210 C   0  0  0  0  0  0  0  0  0  0  0  0
    8.3760   15.9920   17.2700 H   0  0  0  0  0  0  0  0  0  0  0  0
    9.7770   16.7170   16.0370 H   0  0  0  0  0  0  0  0  0  0  0  0
   10.0430   15.3560   17.2410 N   0  0  0  0  0  0  0  0  0  0  0  0
    9.1680   15.2280   16.1190 C   0  0  0  0  0  0  0  0  0  0  0  0
    9.2130   15.6490   15.0360 H   0  0  0  0  0  0  0  0  0  0  0  0
    8.0350   15.3090   15.8960 H   0  0  0  0  0  0  0  0  0  0  0  0
   10.2650   14.5660   17.1570 C   0  0  0  0  0  0  0  0  0  0  0  0
    9.3900   14.4380   16.0360 O   0  0  0  0  0  0  0  0  0  0  0  0
    9.9390   14.1070   16.5560 C   0  0  0  0  0  0  0  0  0  0  0  0
    9.5190   13.0870   16.9460 H   0  0  0  0  0  0  0  0  0  0  0  0
   10.7520   13.5390   15.9330 H   0  0  0  0  0  0  0  0  0  0  0  0
   11.0230   16.7350   19.0480 C   0  0  0  0  0  0  0  0  0  0  0  0
   11.2450   15.9450   18.9650 C   0  0  0  0  0  0  0  0  0  0  0  0
   11.2830   14.9420   19.7360 H   0  0  0  0  0  0  0  0  0  0  0  0
   10.4740   17.0660   18.5290 C   0  0  0  0  0  0  0  0  0  0  0  0
   10.2020   18.2080   18.2260 H   0  0  0  0  0  0  0  0  0  0  0  0
   10.9190   15.4850   18.3630 C   0  0  0  0  0  0  0  0  0  0  0  0
   12.1650   15.1330   18.0000 H   0  0  0  0  0  0  0  0  0  0  0  0
   10.1470   16.6060   17.9260 C   0  0  0  0  0  0  0  0  0  0  0  0
    9.2460   17.3340   17.5130 H   0  0  0  0  0  0  0  0  0  0  0  0
   10.3700   15.8160   17.8430 C   0  0  0  0  0  0  0  0  0  0  0  0
   10.8150   14.2360   17.6780 O   0  0  0  0  0  0  0  0  0  0  0  0
   11.3490   17.1940   19.6500 N   0  0  0  0  0  0  0  0  0  0  0  0
   10.9810   17.8270   20.0310 C   0  0  0  0  0  0  0  0  0  0  0  0
   12.1010   17.1030   19.9780 C   0  0  0  0  0  0  0  0  0  0  0  0
   11.9050   15.9370   20.6770 H   0  0  0  0  0  0  0  0  0  0  0  0
   13.0950   17.0670   19.0750 H   0  0  0  0  0  0  0  0  0  0  0  0
   11.5050   18.1260   20.5940 O   0  0  0  0  0  0  0  0  0  0  0  0
   12.1970   17.6780   20.5600 C   0  0  1  0  0  0  0  0  0  0  0  0
   12.7660   18.5990   19.7360 H   0  0  0  0  0  0  0  0  0  0  0  0
   10.2220   18.1100   19.8770 O   0  0  0  0  0  0  0  0  0  0  0  0
   12.8680   17.7870   21.0280 C   0  0  0  0  0  0  0  0  0  0  0  0
   13.2770   16.5800   21.1520 H   0  0  0  0  0  0  0  0  0  0  0  0
   12.4990   17.7460   22.2830 H   0  0  0  0  0  0  0  0  0  0  0  0
   13.4860   18.2610   20.7580 N   0  0  0  0  0  0  0  0  0  0  0  0
   13.8070   18.0270   19.7320 H   0  0  0  0  0  0  0  0  0  0  0  0
   14.1580   18.3700   21.2260 C   0  0  0  0  0  0  0  0  0  0  0  0
   14.9880   18.9600   20.1660 S   0  0  0  0  0  0  0  0  0  0  0  0
   15.6340   19.4730   20.1490 C   0  0  0  0  0  0  0  0  0  0  0  0
   14.7760   18.8440   20.9560 C   0  0  0  0  0  0  0  0  0  0  0  0
   15.8200   19.6740   20.9270 C   0  0  0  0  0  0  0  0  0  0  0  0
   16.6690   20.3690   21.3650 H   0  0  0  0  0  0  0  0  0  0  0  0
   15.2900   19.2860   21.4260 C   0  0  0  0  0  0  0  0  0  0  0  0
   15.6150   19.4590   22.5340 H   0  0  0  0  0  0  0  0  0  0  0  0
   14.2100   18.0040   21.9640 O   0  0  0  0  0  0  0  0  0  0  0  0
   16.0240   19.7380   19.4730 Cl  0  0  0  0  0  0  0  0  0  0  0  0
  1  2  1  0  0  0  0
  1  3  1  0  0  0  0
  1  4  1  0  0  0  0
  1  5  1  0  0  0  0
  4  8  1  0  0  0  0
  4 22  1  0  0  0  0
  5  6  1  0  0  0  0
  5  7  1  0  0  0  0
  5  9  1  0  0  0  0
  8 10  1  0  0  0  0
  8 23  2  0  0  0  0
  9 10  1  0  0  0  0
 10 11  1  0  0  0  0
 10 12  1  0  0  0  0
 13 14  2  0  0  0  0
 13 16  1  0  0  0  0
 13 24  1  0  0  0  0
 14 15  1  0  0  0  0
 14 18  1  0  0  0  0
 16 17  1  0  0  0  0
 16 20  2  0  0  0  0
 18 19  1  0  0  0  0
 18 22  2  0  0  0  0
 20 21  1  0  0  0  0
 20 22  1  0  0  0  0
 24 25  1  0  0  0  0
 24 26  1  0  0  0  0
 25 29  1  0  0  0  0
 25 32  2  0  0  0  0
 26 27  1  0  0  0  0
 26 28  1  0  0  0  0
 26 30  1  0  0  0  0
 29 30  1  0  0  0  0
 30 31  1  0  0  0  0
 30 33  1  0  0  0  0
 33 34  1  0  0  0  0
 33 35  1  0  0  0  0
 33 36  1  0  0  0  0
 36 37  1  0  0  0  0
 36 38  1  0  0  0  0
 38 41  1  0  0  0  0
 38 46  2  0  0  0  0
 39 40  1  0  0  0  0
 39 41  1  0  0  0  0
 40 42  2  0  0  0  0
 40 47  1  0  0  0  0
 41 44  2  0  0  0  0
 42 43  1  0  0  0  0
 42 44  1  0  0  0  0
 44 45  1  0  0  0  0
M  END
>  <mseq>
1

>  <S>
-12.107644

>  <E_conf>
1.7985789

>  <E_place>
-124.41245

>  <E_score1>
-12.107644

$$$$

  MOE2010           3D

 47 50  0  0  1  0  0  0  0  0999 V2000
   11.4860   17.3140   12.4950 C   0  0  0  0  0  0  0  0  0  0  0  0
   10.2640   17.0570   12.2020 H   0  0  0  0  0  0  0  0  0  0  0  0
   11.4510   18.5260   12.8710 H   0  0  0  0  0  0  0  0  0  0  0  0
   11.8490   16.7350   12.9570 N   0  0  0  0  0  0  0  0  0  0  0  0
   11.7330   17.4360   11.7170 C   0  0  0  0  0  0  0  0  0  0  0  0
   12.0030   18.5210   11.4010 H   0  0  0  0  0  0  0  0  0  0  0  0
   10.9400   17.5980   10.8910 H   0  0  0  0  0  0  0  0  0  0  0  0
   12.4580   16.2780   12.6420 C   0  0  0  0  0  0  0  0  0  0  0  0
   12.3430   16.9780   11.4020 O   0  0  0  0  0  0  0  0  0  0  0  0
   12.7050   16.3990   11.8650 C   0  0  0  0  0  0  0  0  0  0  0  0
   12.7560   15.4040   11.2490 H   0  0  0  0  0  0  0  0  0  0  0  0
   13.8660   16.5190   11.7760 H   0  0  0  0  0  0  0  0  0  0  0  0
   11.1070   16.3720   15.2910 C   0  0  0  0  0  0  0  0  0  0  0  0
   11.4130   15.7430   14.8520 C   0  0  0  0  0  0  0  0  0  0  0  0
   11.0130   14.5770   14.5650 H   0  0  0  0  0  0  0  0  0  0  0  0
   11.0490   17.1210   14.9520 C   0  0  0  0  0  0  0  0  0  0  0  0
   10.9390   18.2360   15.4160 H   0  0  0  0  0  0  0  0  0  0  0  0
   11.6600   15.8640   14.0750 C   0  0  0  0  0  0  0  0  0  0  0  0
   12.8310   15.2810   14.3900 H   0  0  0  0  0  0  0  0  0  0  0  0
   11.2960   17.2430   14.1740 C   0  0  0  0  0  0  0  0  0  0  0  0
   10.8700   18.3740   13.9460 H   0  0  0  0  0  0  0  0  0  0  0  0
   11.6010   16.6140   13.7360 C   0  0  0  0  0  0  0  0  0  0  0  0
   12.8210   15.6980   13.1050 O   0  0  0  0  0  0  0  0  0  0  0  0
   10.8610   16.2510   16.0680 N   0  0  0  0  0  0  0  0  0  0  0  0
   10.0980   16.3750   16.3600 C   0  0  0  0  0  0  0  0  0  0  0  0
   11.3300   15.9850   16.6920 C   0  0  0  0  0  0  0  0  0  0  0  0
   11.4950   14.6750   16.3100 H   0  0  0  0  0  0  0  0  0  0  0  0
   12.4690   16.6770   16.8580 H   0  0  0  0  0  0  0  0  0  0  0  0
   10.0990   16.1860   17.1630 O   0  0  0  0  0  0  0  0  0  0  0  0
   10.8600   15.9440   17.3670 C   0  0  1  0  0  0  0  0  0  0  0  0
   11.1540   17.2000   17.8010 H   0  0  0  0  0  0  0  0  0  0  0  0
    9.4500   16.6420   15.9250 O   0  0  0  0  0  0  0  0  0  0  0  0
   11.1090   15.7050   18.1170 C   0  0  0  0  0  0  0  0  0  0  0  0
   11.9860   14.8230   17.8130 H   0  0  0  0  0  0  0  0  0  0  0  0
   10.3280   14.7300   18.5110 H   0  0  0  0  0  0  0  0  0  0  0  0
   11.4380   16.2530   18.6370 N   0  0  0  0  0  0  0  0  0  0  0  0
   12.3040   15.8670   19.1960 H   0  0  0  0  0  0  0  0  0  0  0  0
   10.9520   16.6700   19.1590 C   0  0  0  0  0  0  0  0  0  0  0  0
   12.0420   17.1830   20.0020 S   0  0  0  0  0  0  0  0  0  0  0  0
   12.1410   17.8410   20.4910 C   0  0  0  0  0  0  0  0  0  0  0  0
   11.2820   17.2180   19.6790 C   0  0  0  0  0  0  0  0  0  0  0  0
   11.4430   18.2810   20.4700 C   0  0  0  0  0  0  0  0  0  0  0  0
   11.1420   19.2830   21.0200 H   0  0  0  0  0  0  0  0  0  0  0  0
   10.9130   17.8970   19.9690 C   0  0  0  0  0  0  0  0  0  0  0  0
    9.8790   18.4370   20.0230 H   0  0  0  0  0  0  0  0  0  0  0  0
   10.1390   16.5390   19.1590 O   0  0  0  0  0  0  0  0  0  0  0  0
   12.8180   18.0250   20.9250 Cl  0  0  0  0  0  0  0  0  0  0  0  0
  1  2  1  0  0  0  0
  1  3  1  0  0  0  0
  1  4  1  0  0  0  0
  1  5  1  0  0  0  0
  4  8  1  0  0  0  0
  4 22  1  0  0  0  0
  5  6  1  0  0  0  0
  5  7  1  0  0  0  0
  5  9  1  0  0  0  0
  8 10  1  0  0  0  0
  8 23  2  0  0  0  0
  9 10  1  0  0  0  0
 10 11  1  0  0  0  0
 10 12  1  0  0  0  0
 13 14  2  0  0  0  0
 13 16  1  0  0  0  0
 13 24  1  0  0  0  0
 14 15  1  0  0  0  0
 14 18  1  0  0  0  0
 16 17  1  0  0  0  0
 16 20  2  0  0  0  0
 18 19  1  0  0  0  0
 18 22  2  0  0  0  0
 20 21  1  0  0  0  0
 20 22  1  0  0  0  0
 24 25  1  0  0  0  0
 24 26  1  0  0  0  0
 25 29  1  0  0  0  0
 25 32  2  0  0  0  0
 26 27  1  0  0  0  0
 26 28  1  0  0  0  0
 26 30  1  0  0  0  0
 29 30  1  0  0  0  0
 30 31  1  0  0  0  0
 30 33  1  0  0  0  0
 33 34  1  0  0  0  0
 33 35  1  0  0  0  0
 33 36  1  0  0  0  0
 36 37  1  0  0  0  0
 36 38  1  0  0  0  0
 38 41  1  0  0  0  0
 38 46  2  0  0  0  0
 39 40  1  0  0  0  0
 39 41  1  0  0  0  0
 40 42  2  0  0  0  0
 40 47  1  0  0  0  0
 41 44  2  0  0  0  0
 42 43  1  0  0  0  0
 42 44  1  0  0  0  0
 44 45  1  0  0  0  0
M  END
>  <mseq>
1

>  <S>
-11.936191

>  <E_conf>
2.3944292

>  <E_place>
-133.39177

>  <E_score1>
-11.936191

$$$$

  MOE2010           3D

 47 50  0  0  1  0  0  0  0  0999 V2000
    9.7200   15.3800   16.2830 C   0  0  0  0  0  0  0  0  0  0  0  0
    8.6380   15.8480   15.7780 H   0  0  0  0  0  0  0  0  0  0  0  0
   10.1150   14.5460   15.4130 H   0  0  0  0  0  0  0  0  0  0  0  0
   10.2280   15.9580   16.5810 N   0  0  0  0  0  0  0  0  0  0  0  0
    9.3490   14.8520   16.7980 C   0  0  0  0  0  0  0  0  0  0  0  0
    9.4440   13.7170   16.5650 H   0  0  0  0  0  0  0  0  0  0  0  0
    8.2320   14.5950   16.6350 H   0  0  0  0  0  0  0  0  0  0  0  0
   10.3650   16.0080   17.3930 C   0  0  0  0  0  0  0  0  0  0  0  0
    9.4860   14.9030   17.6100 O   0  0  0  0  0  0  0  0  0  0  0  0
    9.9940   15.4810   17.9070 C   0  0  0  0  0  0  0  0  0  0  0  0
    9.4660   16.0220   18.8010 H   0  0  0  0  0  0  0  0  0  0  0  0
   10.7440   14.9750   18.6500 H   0  0  0  0  0  0  0  0  0  0  0  0
   11.3420   17.5410   15.0370 C   0  0  0  0  0  0  0  0  0  0  0  0
   11.1600   17.7740   15.8080 C   0  0  0  0  0  0  0  0  0  0  0  0
   10.5340   18.7470   16.3220 H   0  0  0  0  0  0  0  0  0  0  0  0
   11.1520   16.7800   14.7820 C   0  0  0  0  0  0  0  0  0  0  0  0
   11.5470   16.0900   13.8660 H   0  0  0  0  0  0  0  0  0  0  0  0
   10.7890   17.2470   16.3220 C   0  0  0  0  0  0  0  0  0  0  0  0
   11.7470   17.5080   17.2290 H   0  0  0  0  0  0  0  0  0  0  0  0
   10.7810   16.2520   15.2960 C   0  0  0  0  0  0  0  0  0  0  0  0
   10.4660   15.3380   14.5370 H   0  0  0  0  0  0  0  0  0  0  0  0
   10.6000   16.4860   16.0660 C   0  0  0  0  0  0  0  0  0  0  0  0
   10.8740   16.5870   17.6900 O   0  0  0  0  0  0  0  0  0  0  0  0
   11.7130   18.0680   14.5230 N   0  0  0  0  0  0  0  0  0  0  0  0
   11.4160   18.7990   14.2810 C   0  0  0  0  0  0  0  0  0  0  0  0
   12.4450   17.9580   14.1600 C   0  0  0  0  0  0  0  0  0  0  0  0
   13.2660   18.1060   15.2510 H   0  0  0  0  0  0  0  0  0  0  0  0
   12.5680   16.7900   13.5090 H   0  0  0  0  0  0  0  0  0  0  0  0
   11.9650   19.1400   13.7690 O   0  0  0  0  0  0  0  0  0  0  0  0
   12.6010   18.6200   13.6940 C   0  0  1  0  0  0  0  0  0  0  0  0
   12.0600   18.1040   12.5570 H   0  0  0  0  0  0  0  0  0  0  0  0
   10.6970   19.1310   14.5120 O   0  0  0  0  0  0  0  0  0  0  0  0
   13.2750   18.7410   13.2330 C   0  0  0  0  0  0  0  0  0  0  0  0
   12.9340   18.1590   12.1450 H   0  0  0  0  0  0  0  0  0  0  0  0
   14.1010   17.7490   13.4540 H   0  0  0  0  0  0  0  0  0  0  0  0
   13.5300   19.5070   13.0680 N   0  0  0  0  0  0  0  0  0  0  0  0
   12.7310   20.1700   12.7030 H   0  0  0  0  0  0  0  0  0  0  0  0
   14.2040   19.6280   12.6080 C   0  0  0  0  0  0  0  0  0  0  0  0
   14.5370   20.7280   11.6920 S   0  0  0  0  0  0  0  0  0  0  0  0
   14.8060   21.5030   11.7840 C   0  0  0  0  0  0  0  0  0  0  0  0
   14.4590   20.3940   12.4430 C   0  0  0  0  0  0  0  0  0  0  0  0
   14.8950   21.6470   12.5920 C   0  0  0  0  0  0  0  0  0  0  0  0
   15.2610   22.6100   13.1710 H   0  0  0  0  0  0  0  0  0  0  0  0
   14.6800   20.9630   12.9990 C   0  0  0  0  0  0  0  0  0  0  0  0
   14.9160   21.1060   14.1340 H   0  0  0  0  0  0  0  0  0  0  0  0
   14.6230   18.9820   12.3130 O   0  0  0  0  0  0  0  0  0  0  0  0
   14.9600   22.0390   11.1760 Cl  0  0  0  0  0  0  0  0  0  0  0  0
  1  2  1  0  0  0  0
  1  3  1  0  0  0  0
  1  4  1  0  0  0  0
  1  5  1  0  0  0  0
  4  8  1  0  0  0  0
  4 22  1  0  0  0  0
  5  6  1  0  0  0  0
  5  7  1  0  0  0  0
  5  9  1  0  0  0  0
  8 10  1  0  0  0  0
  8 23  2  0  0  0  0
  9 10  1  0  0  0  0
 10 11  1  0  0  0  0
 10 12  1  0  0  0  0
 13 14  2  0  0  0  0
 13 16  1  0  0  0  0
 13 24  1  0  0  0  0
 14 15  1  0  0  0  0
 14 18  1  0  0  0  0
 16 17  1  0  0  0  0
 16 20  2  0  0  0  0
 18 19  1  0  0  0  0
 18 22  2  0  0  0  0
 20 21  1  0  0  0  0
 20 22  1  0  0  0  0
 24 25  1  0  0  0  0
 24 26  1  0  0  0  0
 25 29  1  0  0  0  0
 25 32  2  0  0  0  0
 26 27  1  0  0  0  0
 26 28  1  0  0  0  0
 26 30  1  0  0  0  0
 29 30  1  0  0  0  0
 30 31  1  0  0  0  0
 30 33  1  0  0  0  0
 33 34  1  0  0  0  0
 33 35  1  0  0  0  0
 33 36  1  0  0  0  0
 36 37  1  0  0  0  0
 36 38  1  0  0  0  0
 38 41  1  0  0  0  0
 38 46  2  0  0  0  0
 39 40  1  0  0  0  0
 39 41  1  0  0  0  0
 40 42  2  0  0  0  0
 40 47  1  0  0  0  0
 41 44  2  0  0  0  0
 42 43  1  0  0  0  0
 42 44  1  0  0  0  0
 44 45  1  0  0  0  0
M  END
>  <mseq>
1

>  <S>
-11.865878

>  <E_conf>
3.3925254

>  <E_place>
-122.44689

>  <E_score1>
-11.865878

$$$$

  MOE2010           3D

 47 50  0  0  1  0  0  0  0  0999 V2000
    9.3990   15.1200   18.0870 C   0  0  0  0  0  0  0  0  0  0  0  0
    9.8440   15.3350   19.2700 H   0  0  0  0  0  0  0  0  0  0  0  0
    8.2260   15.6030   18.1200 H   0  0  0  0  0  0  0  0  0  0  0  0
    9.9270   15.3250   17.4870 N   0  0  0  0  0  0  0  0  0  0  0  0
    9.2070   14.3270   18.2140 C   0  0  0  0  0  0  0  0  0  0  0  0
    8.0800   14.0450   18.2530 H   0  0  0  0  0  0  0  0  0  0  0  0
    9.1460   13.9270   19.2980 H   0  0  0  0  0  0  0  0  0  0  0  0
   10.2640   14.7380   17.0160 C   0  0  0  0  0  0  0  0  0  0  0  0
    9.5440   13.7410   17.7420 O   0  0  0  0  0  0  0  0  0  0  0  0
   10.0730   13.9460   17.1420 C   0  0  0  0  0  0  0  0  0  0  0  0
   11.0200   13.2630   17.2260 H   0  0  0  0  0  0  0  0  0  0  0  0
    9.7570   13.3970   16.1580 H   0  0  0  0  0  0  0  0  0  0  0  0
   10.5020   17.7020   17.1060 C   0  0  0  0  0  0  0  0  0  0  0  0
   10.3040   17.4420   17.8630 C   0  0  0  0  0  0  0  0  0  0  0  0
    9.4680   17.8060   18.7420 H   0  0  0  0  0  0  0  0  0  0  0  0
   10.5090   17.1700   16.4750 C   0  0  0  0  0  0  0  0  0  0  0  0
   11.0280   17.1880   15.3800 H   0  0  0  0  0  0  0  0  0  0  0  0
   10.1120   16.6500   17.9900 C   0  0  0  0  0  0  0  0  0  0  0  0
   11.0100   16.6270   18.9920 H   0  0  0  0  0  0  0  0  0  0  0  0
   10.3180   16.3770   16.6030 C   0  0  0  0  0  0  0  0  0  0  0  0
   10.2190   15.9530   15.4530 H   0  0  0  0  0  0  0  0  0  0  0  0
   10.1190   16.1180   17.3600 C   0  0  0  0  0  0  0  0  0  0  0  0
   10.7930   14.9440   16.4160 O   0  0  0  0  0  0  0  0  0  0  0  0
   10.6940   18.4940   16.9780 N   0  0  0  0  0  0  0  0  0  0  0  0
   10.7110   19.0870   17.5520 C   0  0  0  0  0  0  0  0  0  0  0  0
   10.9030   18.8330   16.2560 C   0  0  0  0  0  0  0  0  0  0  0  0
   12.1500   18.2790   16.0960 H   0  0  0  0  0  0  0  0  0  0  0  0
   10.0380   18.5840   15.2590 H   0  0  0  0  0  0  0  0  0  0  0  0
   10.9290   19.7920   17.1830 O   0  0  0  0  0  0  0  0  0  0  0  0
   11.0480   19.6340   16.3820 C   0  0  1  0  0  0  0  0  0  0  0  0
    9.7790   20.0390   16.1030 H   0  0  0  0  0  0  0  0  0  0  0  0
   10.5380   18.9920   18.3530 O   0  0  0  0  0  0  0  0  0  0  0  0
   11.2730   20.1830   15.8080 C   0  0  0  0  0  0  0  0  0  0  0  0
   11.9040   21.0380   16.5220 H   0  0  0  0  0  0  0  0  0  0  0  0
   10.3100   21.0610   15.6860 H   0  0  0  0  0  0  0  0  0  0  0  0
   11.7470   19.9480   15.1760 N   0  0  0  0  0  0  0  0  0  0  0  0
   12.5290   20.6770   14.9150 H   0  0  0  0  0  0  0  0  0  0  0  0
   11.4000   19.6720   14.4800 C   0  0  0  0  0  0  0  0  0  0  0  0
   12.4180   19.9120   13.4460 S   0  0  0  0  0  0  0  0  0  0  0  0
   12.7700   19.4550   12.8570 C   0  0  0  0  0  0  0  0  0  0  0  0
   11.8760   19.4370   13.8480 C   0  0  0  0  0  0  0  0  0  0  0  0
   12.4460   18.6970   12.8940 C   0  0  0  0  0  0  0  0  0  0  0  0
   12.6490   17.7340   12.2410 H   0  0  0  0  0  0  0  0  0  0  0  0
   11.8930   18.6860   13.5070 C   0  0  0  0  0  0  0  0  0  0  0  0
   11.3360   17.6600   13.4960 H   0  0  0  0  0  0  0  0  0  0  0  0
   10.5790   19.6310   14.4160 O   0  0  0  0  0  0  0  0  0  0  0  0
   13.3450   19.7100   12.3230 Cl  0  0  0  0  0  0  0  0  0  0  0  0
  1  2  1  0  0  0  0
  1  3  1  0  0  0  0
  1  4  1  0  0  0  0
  1  5  1  0  0  0  0
  4  8  1  0  0  0  0
  4 22  1  0  0  0  0
  5  6  1  0  0  0  0
  5  7  1  0  0  0  0
  5  9  1  0  0  0  0
  8 10  1  0  0  0  0
  8 23  2  0  0  0  0
  9 10  1  0  0  0  0
 10 11  1  0  0  0  0
 10 12  1  0  0  0  0
 13 14  2  0  0  0  0
 13 16  1  0  0  0  0
 13 24  1  0  0  0  0
 14 15  1  0  0  0  0
 14 18  1  0  0  0  0
 16 17  1  0  0  0  0
 16 20  2  0  0  0  0
 18 19  1  0  0  0  0
 18 22  2  0  0  0  0
 20 21  1  0  0  0  0
 20 22  1  0  0  0  0
 24 25  1  0  0  0  0
 24 26  1  0  0  0  0
 25 29  1  0  0  0  0
 25 32  2  0  0  0  0
 26 27  1  0  0  0  0
 26 28  1  0  0  0  0
 26 30  1  0  0  0  0
 29 30  1  0  0  0  0
 30 31  1  0  0  0  0
 30 33  1  0  0  0  0
 33 34  1  0  0  0  0
 33 35  1  0  0  0  0
 33 36  1  0  0  0  0
 36 37  1  0  0  0  0
 36 38  1  0  0  0  0
 38 41  1  0  0  0  0
 38 46  2  0  0  0  0
 39 40  1  0  0  0  0
 39 41  1  0  0  0  0
 40 42  2  0  0  0  0
 40 47  1  0  0  0  0
 41 44  2  0  0  0  0
 42 43  1  0  0  0  0
 42 44  1  0  0  0  0
 44 45  1  0  0  0  0
M  END
>  <mseq>
1

>  <S>
-11.828547

>  <E_conf>
0.83569396

>  <E_place>
-124.54855

>  <E_score1>
-11.828547

$$$$

  MOE2010           3D

 47 50  0  0  1  0  0  0  0  0999 V2000
   11.9950   20.1380   15.7050 C   0  0  0  0  0  0  0  0  0  0  0  0
   11.1270   20.7880   16.3910 H   0  0  0  0  0  0  0  0  0  0  0  0
   13.0660   20.2860   16.3700 H   0  0  0  0  0  0  0  0  0  0  0  0
   11.7420   19.3910   15.4660 N   0  0  0  0  0  0  0  0  0  0  0  0
   12.1170   20.7320   15.1450 C   0  0  0  0  0  0  0  0  0  0  0  0
   13.1390   21.2850   15.1610 H   0  0  0  0  0  0  0  0  0  0  0  0
   11.7500   21.8060   15.3690 H   0  0  0  0  0  0  0  0  0  0  0  0
   11.6110   19.2360   14.6660 C   0  0  0  0  0  0  0  0  0  0  0  0
   11.9860   20.5760   14.3450 O   0  0  0  0  0  0  0  0  0  0  0  0
   11.7330   19.8280   14.1060 C   0  0  0  0  0  0  0  0  0  0  0  0
   10.8230   19.9540   13.3800 H   0  0  0  0  0  0  0  0  0  0  0  0
   12.4020   19.4720   13.2140 H   0  0  0  0  0  0  0  0  0  0  0  0
   11.3760   17.6120   17.1480 C   0  0  0  0  0  0  0  0  0  0  0  0
   11.2450   17.4570   16.3480 C   0  0  0  0  0  0  0  0  0  0  0  0
   10.2790   16.9920   15.6750 H   0  0  0  0  0  0  0  0  0  0  0  0
   11.6290   18.3600   17.3870 C   0  0  0  0  0  0  0  0  0  0  0  0
   12.1690   18.7710   18.3920 H   0  0  0  0  0  0  0  0  0  0  0  0
   11.3670   18.0500   15.7880 C   0  0  0  0  0  0  0  0  0  0  0  0
   12.1370   17.1910   15.0960 H   0  0  0  0  0  0  0  0  0  0  0  0
   11.7510   18.9530   16.8260 C   0  0  0  0  0  0  0  0  0  0  0  0
   11.8990   19.9460   17.5370 H   0  0  0  0  0  0  0  0  0  0  0  0
   11.6200   18.7970   16.0270 C   0  0  0  0  0  0  0  0  0  0  0  0
   11.3580   18.4870   14.4280 O   0  0  0  0  0  0  0  0  0  0  0  0
   11.2540   17.0200   17.7080 N   0  0  0  0  0  0  0  0  0  0  0  0
   11.0020   16.2490   17.5530 C   0  0  0  0  0  0  0  0  0  0  0  0
   11.3610   17.0920   18.5230 C   0  0  0  0  0  0  0  0  0  0  0  0
   12.7330   17.1530   18.5680 H   0  0  0  0  0  0  0  0  0  0  0  0
   10.7260   18.1400   19.0720 H   0  0  0  0  0  0  0  0  0  0  0  0
   10.9550   15.8460   18.2710 O   0  0  0  0  0  0  0  0  0  0  0  0
   11.1770   16.3680   18.8700 C   0  0  1  0  0  0  0  0  0  0  0  0
    9.8710   16.6700   19.1070 H   0  0  0  0  0  0  0  0  0  0  0  0
   10.8290   15.9360   16.8090 O   0  0  0  0  0  0  0  0  0  0  0  0
   11.2080   16.1940   19.6770 C   0  0  0  0  0  0  0  0  0  0  0  0
   11.4120   14.9300   19.6470 H   0  0  0  0  0  0  0  0  0  0  0  0
    9.9900   15.9450   20.0870 H   0  0  0  0  0  0  0  0  0  0  0  0
   11.7760   16.5540   20.1540 N   0  0  0  0  0  0  0  0  0  0  0  0
   12.2300   15.8730   20.8900 H   0  0  0  0  0  0  0  0  0  0  0  0
   11.6090   17.2710   20.5260 C   0  0  0  0  0  0  0  0  0  0  0  0
   12.9340   17.3380   21.1590 S   0  0  0  0  0  0  0  0  0  0  0  0
   13.3150   17.8710   21.6600 C   0  0  0  0  0  0  0  0  0  0  0  0
   12.1780   17.6300   21.0030 C   0  0  0  0  0  0  0  0  0  0  0  0
   12.7940   18.4930   21.8150 C   0  0  0  0  0  0  0  0  0  0  0  0
   12.9170   19.4590   22.4830 H   0  0  0  0  0  0  0  0  0  0  0  0
   12.0920   18.3440   21.4090 C   0  0  0  0  0  0  0  0  0  0  0  0
   11.3000   19.1460   21.7130 H   0  0  0  0  0  0  0  0  0  0  0  0
   10.8730   17.6290   20.4210 O   0  0  0  0  0  0  0  0  0  0  0  0
   14.0810   17.7970   21.9560 Cl  0  0  0  0  0  0  0  0  0  0  0  0
  1  2  1  0  0  0  0
  1  3  1  0  0  0  0
  1  4  1  0  0  0  0
  1  5  1  0  0  0  0
  4  8  1  0  0  0  0
  4 22  1  0  0  0  0
  5  6  1  0  0  0  0
  5  7  1  0  0  0  0
  5  9  1  0  0  0  0
  8 10  1  0  0  0  0
  8 23  2  0  0  0  0
  9 10  1  0  0  0  0
 10 11  1  0  0  0  0
 10 12  1  0  0  0  0
 13 14  2  0  0  0  0
 13 16  1  0  0  0  0
 13 24  1  0  0  0  0
 14 15  1  0  0  0  0
 14 18  1  0  0  0  0
 16 17  1  0  0  0  0
 16 20  2  0  0  0  0
 18 19  1  0  0  0  0
 18 22  2  0  0  0  0
 20 21  1  0  0  0  0
 20 22  1  0  0  0  0
 24 25  1  0  0  0  0
 24 26  1  0  0  0  0
 25 29  1  0  0  0  0
 25 32  2  0  0  0  0
 26 27  1  0  0  0  0
 26 28  1  0  0  0  0
 26 30  1  0  0  0  0
 29 30  1  0  0  0  0
 30 31  1  0  0  0  0
 30 33  1  0  0  0  0
 33 34  1  0  0  0  0
 33 35  1  0  0  0  0
 33 36  1  0  0  0  0
 36 37  1  0  0  0  0
 36 38  1  0  0  0  0
 38 41  1  0  0  0  0
 38 46  2  0  0  0  0
 39 40  1  0  0  0  0
 39 41  1  0  0  0  0
 40 42  2  0  0  0  0
 40 47  1  0  0  0  0
 41 44  2  0  0  0  0
 42 43  1  0  0  0  0
 42 44  1  0  0  0  0
 44 45  1  0  0  0  0
M  END
>  <mseq>
1

>  <S>
-11.775189

>  <E_conf>
0.44126737

>  <E_place>
-127.83312

>  <E_score1>
-11.775189

$$$$

  MOE2010           3D

 47 50  0  0  1  0  0  0  0  0999 V2000
   12.0880   20.3180   14.8680 C   0  0  0  0  0  0  0  0  0  0  0  0
   10.9150   20.4270   14.3600 H   0  0  0  0  0  0  0  0  0  0  0  0
   11.9820   20.9150   15.9830 H   0  0  0  0  0  0  0  0  0  0  0  0
   12.4050   19.5580   14.8200 N   0  0  0  0  0  0  0  0  0  0  0  0
   12.4230   20.9340   14.4320 C   0  0  0  0  0  0  0  0  0  0  0  0
   12.7060   21.9060   15.0040 H   0  0  0  0  0  0  0  0  0  0  0  0
   11.7310   21.6850   13.8880 H   0  0  0  0  0  0  0  0  0  0  0  0
   13.0570   19.4140   14.3360 C   0  0  0  0  0  0  0  0  0  0  0  0
   13.0760   20.7880   13.9490 O   0  0  0  0  0  0  0  0  0  0  0  0
   13.3930   20.0280   13.9010 C   0  0  0  0  0  0  0  0  0  0  0  0
   13.5380   19.7520   12.7730 H   0  0  0  0  0  0  0  0  0  0  0  0
   14.5530   20.0950   14.0390 H   0  0  0  0  0  0  0  0  0  0  0  0
   11.3980   17.7130   16.1270 C   0  0  0  0  0  0  0  0  0  0  0  0
   11.7670   17.5550   15.4060 C   0  0  0  0  0  0  0  0  0  0  0  0
   11.4300   16.9580   14.3420 H   0  0  0  0  0  0  0  0  0  0  0  0
   11.3640   18.4860   16.4120 C   0  0  0  0  0  0  0  0  0  0  0  0
   11.1760   18.9570   17.5130 H   0  0  0  0  0  0  0  0  0  0  0  0
   12.1020   18.1690   14.9710 C   0  0  0  0  0  0  0  0  0  0  0  0
   13.2390   17.4540   14.8970 H   0  0  0  0  0  0  0  0  0  0  0  0
   11.7000   19.1020   15.9760 C   0  0  0  0  0  0  0  0  0  0  0  0
   11.2800   20.0920   16.5720 H   0  0  0  0  0  0  0  0  0  0  0  0
   12.0690   18.9430   15.2560 C   0  0  0  0  0  0  0  0  0  0  0  0
   13.3740   18.6530   14.2890 O   0  0  0  0  0  0  0  0  0  0  0  0
   11.0630   17.0980   16.5620 N   0  0  0  0  0  0  0  0  0  0  0  0
   10.7380   16.4050   16.2530 C   0  0  0  0  0  0  0  0  0  0  0  0
   10.9920   17.0670   17.3830 C   0  0  0  0  0  0  0  0  0  0  0  0
   12.3110   16.8750   17.7190 H   0  0  0  0  0  0  0  0  0  0  0  0
   10.4170   18.1510   17.9290 H   0  0  0  0  0  0  0  0  0  0  0  0
   10.4670   15.9470   16.8830 O   0  0  0  0  0  0  0  0  0  0  0  0
   10.6250   16.3560   17.5810 C   0  0  1  0  0  0  0  0  0  0  0  0
    9.3620   16.8630   17.5830 H   0  0  0  0  0  0  0  0  0  0  0  0
   10.6920   16.2060   15.4540 O   0  0  0  0  0  0  0  0  0  0  0  0
   10.4450   16.0990   18.3450 C   0  0  0  0  0  0  0  0  0  0  0  0
   10.4540   14.8290   18.1830 H   0  0  0  0  0  0  0  0  0  0  0  0
    9.1430   16.0320   18.4560 H   0  0  0  0  0  0  0  0  0  0  0  0
   10.9380   16.3000   18.9740 N   0  0  0  0  0  0  0  0  0  0  0  0
   11.1040   15.4780   19.6870 H   0  0  0  0  0  0  0  0  0  0  0  0
   10.8030   16.9940   19.4000 C   0  0  0  0  0  0  0  0  0  0  0  0
   11.9440   16.7570   20.2950 S   0  0  0  0  0  0  0  0  0  0  0  0
   12.2780   17.1590   20.9340 C   0  0  0  0  0  0  0  0  0  0  0  0
   11.2970   17.1950   20.0290 C   0  0  0  0  0  0  0  0  0  0  0  0
   11.8370   17.8450   21.0620 C   0  0  0  0  0  0  0  0  0  0  0  0
   11.9530   18.7000   21.8680 H   0  0  0  0  0  0  0  0  0  0  0  0
   11.2310   17.8670   20.5030 C   0  0  0  0  0  0  0  0  0  0  0  0
   10.5240   18.7640   20.7460 H   0  0  0  0  0  0  0  0  0  0  0  0
   10.1750   17.4870   19.1950 O   0  0  0  0  0  0  0  0  0  0  0  0
   12.9370   16.9180   21.3680 Cl  0  0  0  0  0  0  0  0  0  0  0  0
  1  2  1  0  0  0  0
  1  3  1  0  0  0  0
  1  4  1  0  0  0  0
  1  5  1  0  0  0  0
  4  8  1  0  0  0  0
  4 22  1  0  0  0  0
  5  6  1  0  0  0  0
  5  7  1  0  0  0  0
  5  9  1  0  0  0  0
  8 10  1  0  0  0  0
  8 23  2  0  0  0  0
  9 10  1  0  0  0  0
 10 11  1  0  0  0  0
 10 12  1  0  0  0  0
 13 14  2  0  0  0  0
 13 16  1  0  0  0  0
 13 24  1  0  0  0  0
 14 15  1  0  0  0  0
 14 18  1  0  0  0  0
 16 17  1  0  0  0  0
 16 20  2  0  0  0  0
 18 19  1  0  0  0  0
 18 22  2  0  0  0  0
 20 21  1  0  0  0  0
 20 22  1  0  0  0  0
 24 25  1  0  0  0  0
 24 26  1  0  0  0  0
 25 29  1  0  0  0  0
 25 32  2  0  0  0  0
 26 27  1  0  0  0  0
 26 28  1  0  0  0  0
 26 30  1  0  0  0  0
 29 30  1  0  0  0  0
 30 31  1  0  0  0  0
 30 33  1  0  0  0  0
 33 34  1  0  0  0  0
 33 35  1  0  0  0  0
 33 36  1  0  0  0  0
 36 37  1  0  0  0  0
 36 38  1  0  0  0  0
 38 41  1  0  0  0  0
 38 46  2  0  0  0  0
 39 40  1  0  0  0  0
 39 41  1  0  0  0  0
 40 42  2  0  0  0  0
 40 47  1  0  0  0  0
 41 44  2  0  0  0  0
 42 43  1  0  0  0  0
 42 44  1  0  0  0  0
 44 45  1  0  0  0  0
M  END
>  <mseq>
1

>  <S>
-11.751289

>  <E_conf>
0.83478343

>  <E_place>
-124.55783

>  <E_score1>
-11.751289

$$$$

  MOE2010           3D

 47 50  0  0  1  0  0  0  0  0999 V2000
   12.5740   16.6900   19.9790 C   0  0  0  0  0  0  0  0  0  0  0  0
   12.1900   15.4750   20.1230 H   0  0  0  0  0  0  0  0  0  0  0  0
   13.6860   16.5790   19.3790 H   0  0  0  0  0  0  0  0  0  0  0  0
   11.9860   17.1960   19.6970 N   0  0  0  0  0  0  0  0  0  0  0  0
   12.8590   16.7780   20.7490 C   0  0  0  0  0  0  0  0  0  0  0  0
   14.0100   16.8560   20.8900 H   0  0  0  0  0  0  0  0  0  0  0  0
   13.0370   15.8360   21.3960 H   0  0  0  0  0  0  0  0  0  0  0  0
   11.6840   17.7890   20.1840 C   0  0  0  0  0  0  0  0  0  0  0  0
   12.5560   17.3720   21.2350 O   0  0  0  0  0  0  0  0  0  0  0  0
   11.9690   17.8770   20.9530 C   0  0  0  0  0  0  0  0  0  0  0  0
   11.1100   17.9350   21.7460 H   0  0  0  0  0  0  0  0  0  0  0  0
   12.2740   18.9810   21.1950 H   0  0  0  0  0  0  0  0  0  0  0  0
   11.1310   16.9330   17.3890 C   0  0  0  0  0  0  0  0  0  0  0  0
   10.8290   17.5260   17.8760 C   0  0  0  0  0  0  0  0  0  0  0  0
    9.6690   17.8740   18.2450 H   0  0  0  0  0  0  0  0  0  0  0  0
   11.7180   16.4270   17.6710 C   0  0  0  0  0  0  0  0  0  0  0  0
   12.5260   15.7070   17.1250 H   0  0  0  0  0  0  0  0  0  0  0  0
   11.1130   17.6140   18.6450 C   0  0  0  0  0  0  0  0  0  0  0  0
   11.3180   18.9180   18.3860 H   0  0  0  0  0  0  0  0  0  0  0  0
   12.0040   16.5150   18.4410 C   0  0  0  0  0  0  0  0  0  0  0  0
   12.6750   15.4940   18.5800 H   0  0  0  0  0  0  0  0  0  0  0  0
   11.7010   17.1080   18.9270 C   0  0  0  0  0  0  0  0  0  0  0  0
   11.0960   18.2950   19.9010 O   0  0  0  0  0  0  0  0  0  0  0  0
   10.8460   16.8450   16.6200 N   0  0  0  0  0  0  0  0  0  0  0  0
   10.0650   16.6850   16.4080 C   0  0  0  0  0  0  0  0  0  0  0  0
   11.2910   16.9000   15.9280 C   0  0  0  0  0  0  0  0  0  0  0  0
   11.5290   18.2540   15.9180 H   0  0  0  0  0  0  0  0  0  0  0  0
   12.3900   16.1290   15.9160 H   0  0  0  0  0  0  0  0  0  0  0  0
   10.0280   16.6430   15.5850 O   0  0  0  0  0  0  0  0  0  0  0  0
   10.7860   16.7760   15.2890 C   0  0  1  0  0  0  0  0  0  0  0  0
   11.0050   15.4350   15.2150 H   0  0  0  0  0  0  0  0  0  0  0  0
    9.4310   16.5860   16.9270 O   0  0  0  0  0  0  0  0  0  0  0  0
   11.0010   16.7830   14.4920 C   0  0  0  0  0  0  0  0  0  0  0  0
    9.8950   17.1210   13.9440 H   0  0  0  0  0  0  0  0  0  0  0  0
   10.8210   15.5780   14.0120 H   0  0  0  0  0  0  0  0  0  0  0  0
   11.6020   17.2830   14.2320 N   0  0  0  0  0  0  0  0  0  0  0  0
   12.4620   17.3360   14.9170 H   0  0  0  0  0  0  0  0  0  0  0  0
   11.4220   18.0470   13.9750 C   0  0  0  0  0  0  0  0  0  0  0  0
   12.0830   18.8830   12.9630 S   0  0  0  0  0  0  0  0  0  0  0  0
   12.7680   19.3420   12.9430 C   0  0  0  0  0  0  0  0  0  0  0  0
   12.0240   18.5460   13.7150 C   0  0  0  0  0  0  0  0  0  0  0  0
   13.1320   19.2900   13.6820 C   0  0  0  0  0  0  0  0  0  0  0  0
   14.1290   19.7750   14.0910 H   0  0  0  0  0  0  0  0  0  0  0  0
   12.6720   18.7990   14.1590 C   0  0  0  0  0  0  0  0  0  0  0  0
   13.2340   18.6130   15.1650 H   0  0  0  0  0  0  0  0  0  0  0  0
   10.6400   18.3090   13.9800 O   0  0  0  0  0  0  0  0  0  0  0  0
   13.0410   19.7780   12.2980 Cl  0  0  0  0  0  0  0  0  0  0  0  0
  1  2  1  0  0  0  0
  1  3  1  0  0  0  0
  1  4  1  0  0  0  0
  1  5  1  0  0  0  0
  4  8  1  0  0  0  0
  4 22  1  0  0  0  0
  5  6  1  0  0  0  0
  5  7  1  0  0  0  0
  5  9  1  0  0  0  0
  8 10  1  0  0  0  0
  8 23  2  0  0  0  0
  9 10  1  0  0  0  0
 10 11  1  0  0  0  0
 10 12  1  0  0  0  0
 13 14  2  0  0  0  0
 13 16  1  0  0  0  0
 13 24  1  0  0  0  0
 14 15  1  0  0  0  0
 14 18  1  0  0  0  0
 16 17  1  0  0  0  0
 16 20  2  0  0  0  0
 18 19  1  0  0  0  0
 18 22  2  0  0  0  0
 20 21  1  0  0  0  0
 20 22  1  0  0  0  0
 24 25  1  0  0  0  0
 24 26  1  0  0  0  0
 25 29  1  0  0  0  0
 25 32  2  0  0  0  0
 26 27  1  0  0  0  0
 26 28  1  0  0  0  0
 26 30  1  0  0  0  0
 29 30  1  0  0  0  0
 30 31  1  0  0  0  0
 30 33  1  0  0  0  0
 33 34  1  0  0  0  0
 33 35  1  0  0  0  0
 33 36  1  0  0  0  0
 36 37  1  0  0  0  0
 36 38  1  0  0  0  0
 38 41  1  0  0  0  0
 38 46  2  0  0  0  0
 39 40  1  0  0  0  0
 39 41  1  0  0  0  0
 40 42  2  0  0  0  0
 40 47  1  0  0  0  0
 41 44  2  0  0  0  0
 42 43  1  0  0  0  0
 42 44  1  0  0  0  0
 44 45  1  0  0  0  0
M  END
>  <mseq>
1

>  <S>
-11.708097

>  <E_conf>
2.1987417

>  <E_place>
-132.9373

>  <E_score1>
-11.708097

$$$$

  MOE2010           3D

 47 50  0  0  1  0  0  0  0  0999 V2000
   12.2810   17.5760   18.9250 C   0  0  0  0  0  0  0  0  0  0  0  0
   11.7170   16.7200   18.1550 H   0  0  0  0  0  0  0  0  0  0  0  0
   13.5080   17.4870   18.6160 H   0  0  0  0  0  0  0  0  0  0  0  0
   11.8990   18.3070   18.9490 N   0  0  0  0  0  0  0  0  0  0  0  0
   12.2890   17.0920   19.5940 C   0  0  0  0  0  0  0  0  0  0  0  0
   13.3180   16.6920   19.9560 H   0  0  0  0  0  0  0  0  0  0  0  0
   12.1070   15.9560   19.4720 H   0  0  0  0  0  0  0  0  0  0  0  0
   11.5260   18.5540   19.6420 C   0  0  0  0  0  0  0  0  0  0  0  0
   11.9150   17.3400   20.2860 O   0  0  0  0  0  0  0  0  0  0  0  0
   11.5340   18.0710   20.3100 C   0  0  0  0  0  0  0  0  0  0  0  0
   10.4670   17.9230   20.7700 H   0  0  0  0  0  0  0  0  0  0  0  0
   11.8760   18.6420   21.2740 H   0  0  0  0  0  0  0  0  0  0  0  0
   11.8760   19.7580   16.9440 C   0  0  0  0  0  0  0  0  0  0  0  0
   11.1660   19.4930   17.2700 C   0  0  0  0  0  0  0  0  0  0  0  0
   10.1470   18.8900   16.8220 H   0  0  0  0  0  0  0  0  0  0  0  0
   12.5940   19.5400   17.2870 C   0  0  0  0  0  0  0  0  0  0  0  0
   13.7160   19.9950   17.2240 H   0  0  0  0  0  0  0  0  0  0  0  0
   11.1740   19.0100   17.9380 C   0  0  0  0  0  0  0  0  0  0  0  0
   10.3000   19.8520   18.5190 H   0  0  0  0  0  0  0  0  0  0  0  0
   12.6020   19.0560   17.9550 C   0  0  0  0  0  0  0  0  0  0  0  0
   13.7940   18.7690   18.0460 H   0  0  0  0  0  0  0  0  0  0  0  0
   11.8920   18.7910   18.2810 C   0  0  0  0  0  0  0  0  0  0  0  0
   11.1440   19.2860   19.6660 O   0  0  0  0  0  0  0  0  0  0  0  0
   11.8680   20.2410   16.2760 N   0  0  0  0  0  0  0  0  0  0  0  0
   11.2970   20.2370   15.6810 C   0  0  0  0  0  0  0  0  0  0  0  0
   12.4300   20.8150   16.0850 C   0  0  0  0  0  0  0  0  0  0  0  0
   12.1270   21.7570   17.0380 H   0  0  0  0  0  0  0  0  0  0  0  0
   13.6980   20.3730   16.1040 H   0  0  0  0  0  0  0  0  0  0  0  0
   11.5060   20.8070   15.1230 O   0  0  0  0  0  0  0  0  0  0  0  0
   12.2060   21.1640   15.3730 C   0  0  1  0  0  0  0  0  0  0  0  0
   12.9300   20.3220   14.5860 H   0  0  0  0  0  0  0  0  0  0  0  0
   10.6330   19.7480   15.6490 O   0  0  0  0  0  0  0  0  0  0  0  0
   12.6120   21.7650   14.9790 C   0  0  0  0  0  0  0  0  0  0  0  0
   13.0930   22.4220   15.9680 H   0  0  0  0  0  0  0  0  0  0  0  0
   11.7790   22.7560   14.7820 H   0  0  0  0  0  0  0  0  0  0  0  0
   13.2170   21.5780   14.4520 N   0  0  0  0  0  0  0  0  0  0  0  0
   14.0900   22.2440   14.5250 H   0  0  0  0  0  0  0  0  0  0  0  0
   13.0460   21.4550   13.6540 C   0  0  0  0  0  0  0  0  0  0  0  0
   14.3130   21.7340   12.9620 S   0  0  0  0  0  0  0  0  0  0  0  0
   14.7740   21.3370   12.4060 C   0  0  0  0  0  0  0  0  0  0  0  0
   13.6520   21.2670   13.1270 C   0  0  0  0  0  0  0  0  0  0  0  0
   14.3980   20.6240   12.2260 C   0  0  0  0  0  0  0  0  0  0  0  0
   14.6970   19.7560   11.4820 H   0  0  0  0  0  0  0  0  0  0  0  0
   13.7050   20.5810   12.6720 C   0  0  0  0  0  0  0  0  0  0  0  0
   13.0990   19.6400   12.3410 H   0  0  0  0  0  0  0  0  0  0  0  0
   12.2700   21.5190   13.3840 O   0  0  0  0  0  0  0  0  0  0  0  0
   15.4850   21.6040   12.0840 Cl  0  0  0  0  0  0  0  0  0  0  0  0
  1  2  1  0  0  0  0
  1  3  1  0  0  0  0
  1  4  1  0  0  0  0
  1  5  1  0  0  0  0
  4  8  1  0  0  0  0
  4 22  1  0  0  0  0
  5  6  1  0  0  0  0
  5  7  1  0  0  0  0
  5  9  1  0  0  0  0
  8 10  1  0  0  0  0
  8 23  2  0  0  0  0
  9 10  1  0  0  0  0
 10 11  1  0  0  0  0
 10 12  1  0  0  0  0
 13 14  2  0  0  0  0
 13 16  1  0  0  0  0
 13 24  1  0  0  0  0
 14 15  1  0  0  0  0
 14 18  1  0  0  0  0
 16 17  1  0  0  0  0
 16 20  2  0  0  0  0
 18 19  1  0  0  0  0
 18 22  2  0  0  0  0
 20 21  1  0  0  0  0
 20 22  1  0  0  0  0
 24 25  1  0  0  0  0
 24 26  1  0  0  0  0
 25 29  1  0  0  0  0
 25 32  2  0  0  0  0
 26 27  1  0  0  0  0
 26 28  1  0  0  0  0
 26 30  1  0  0  0  0
 29 30  1  0  0  0  0
 30 31  1  0  0  0  0
 30 33  1  0  0  0  0
 33 34  1  0  0  0  0
 33 35  1  0  0  0  0
 33 36  1  0  0  0  0
 36 37  1  0  0  0  0
 36 38  1  0  0  0  0
 38 41  1  0  0  0  0
 38 46  2  0  0  0  0
 39 40  1  0  0  0  0
 39 41  1  0  0  0  0
 40 42  2  0  0  0  0
 40 47  1  0  0  0  0
 41 44  2  0  0  0  0
 42 43  1  0  0  0  0
 42 44  1  0  0  0  0
 44 45  1  0  0  0  0
M  END
>  <mseq>
1

>  <S>
-11.676436

>  <E_conf>
2.9873865

>  <E_place>
-125.41524

>  <E_score1>
-11.676436

$$$$

  MOE2010           3D

 47 50  0  0  1  0  0  0  0  0999 V2000
   10.0050   15.6780   13.8580 C   0  0  0  0  0  0  0  0  0  0  0  0
   10.2060   14.4190   13.9940 H   0  0  0  0  0  0  0  0  0  0  0  0
    8.7910   15.8210   14.1990 H   0  0  0  0  0  0  0  0  0  0  0  0
   10.5970   16.1500   14.1840 N   0  0  0  0  0  0  0  0  0  0  0  0
    9.8990   15.6560   13.0390 C   0  0  0  0  0  0  0  0  0  0  0  0
    8.8290   15.8510   12.6300 H   0  0  0  0  0  0  0  0  0  0  0  0
    9.7040   14.6400   12.5210 H   0  0  0  0  0  0  0  0  0  0  0  0
   11.0840   16.5990   13.6930 C   0  0  0  0  0  0  0  0  0  0  0  0
   10.3860   16.1060   12.5490 O   0  0  0  0  0  0  0  0  0  0  0  0
   10.9790   16.5770   12.8760 C   0  0  0  0  0  0  0  0  0  0  0  0
   11.9780   16.3780   12.2990 H   0  0  0  0  0  0  0  0  0  0  0  0
   10.9130   17.6460   12.4020 H   0  0  0  0  0  0  0  0  0  0  0  0
   10.9150   16.2160   16.6380 C   0  0  0  0  0  0  0  0  0  0  0  0
   10.6230   15.5330   16.2780 C   0  0  0  0  0  0  0  0  0  0  0  0
    9.6080   14.7960   16.4490 H   0  0  0  0  0  0  0  0  0  0  0  0
   11.1000   16.8760   16.1810 C   0  0  0  0  0  0  0  0  0  0  0  0
   11.7930   17.8520   16.3750 H   0  0  0  0  0  0  0  0  0  0  0  0
   10.5180   15.5110   15.4600 C   0  0  0  0  0  0  0  0  0  0  0  0
   11.2240   14.3660   15.4330 H   0  0  0  0  0  0  0  0  0  0  0  0
   10.9940   16.8550   15.3620 C   0  0  0  0  0  0  0  0  0  0  0  0
   11.1530   18.0350   15.0550 H   0  0  0  0  0  0  0  0  0  0  0  0
   10.7030   16.1720   15.0030 C   0  0  0  0  0  0  0  0  0  0  0  0
   11.6780   17.0710   14.0210 O   0  0  0  0  0  0  0  0  0  0  0  0
   11.0200   16.2380   17.4560 N   0  0  0  0  0  0  0  0  0  0  0  0
   10.8600   15.6230   17.9830 C   0  0  0  0  0  0  0  0  0  0  0  0
   11.3050   16.8780   17.8920 C   0  0  0  0  0  0  0  0  0  0  0  0
   12.6230   16.8500   17.5030 H   0  0  0  0  0  0  0  0  0  0  0  0
   10.6650   18.0340   17.6550 H   0  0  0  0  0  0  0  0  0  0  0  0
   11.0450   15.8840   18.7430 O   0  0  0  0  0  0  0  0  0  0  0  0
   11.3200   16.6590   18.6860 C   0  0  1  0  0  0  0  0  0  0  0  0
   10.0770   17.1330   18.9720 H   0  0  0  0  0  0  0  0  0  0  0  0
   10.5650   14.8790   17.7830 O   0  0  0  0  0  0  0  0  0  0  0  0
   11.5680   17.1330   19.3150 C   0  0  0  0  0  0  0  0  0  0  0  0
   10.4830   17.7540   19.5930 H   0  0  0  0  0  0  0  0  0  0  0  0
   12.0310   18.2530   18.8210 H   0  0  0  0  0  0  0  0  0  0  0  0
   11.8700   16.7870   19.9990 N   0  0  0  0  0  0  0  0  0  0  0  0
   11.2440   15.9740   20.3970 H   0  0  0  0  0  0  0  0  0  0  0  0
   12.1180   17.2610   20.6270 C   0  0  0  0  0  0  0  0  0  0  0  0
   12.6880   17.3150   21.9810 S   0  0  0  0  0  0  0  0  0  0  0  0
   12.9420   16.7540   22.5300 C   0  0  0  0  0  0  0  0  0  0  0  0
   12.4200   16.9130   21.3110 C   0  0  0  0  0  0  0  0  0  0  0  0
   12.8310   16.0060   22.1990 C   0  0  0  0  0  0  0  0  0  0  0  0
   13.0620   14.9280   22.6250 H   0  0  0  0  0  0  0  0  0  0  0  0
   12.5090   16.1040   21.4470 C   0  0  0  0  0  0  0  0  0  0  0  0
   12.4600   15.0660   20.9150 H   0  0  0  0  0  0  0  0  0  0  0  0
   12.0620   18.0820   20.5710 O   0  0  0  0  0  0  0  0  0  0  0  0
   13.2520   16.9120   23.2780 Cl  0  0  0  0  0  0  0  0  0  0  0  0
  1  2  1  0  0  0  0
  1  3  1  0  0  0  0
  1  4  1  0  0  0  0
  1  5  1  0  0  0  0
  4  8  1  0  0  0  0
  4 22  1  0  0  0  0
  5  6  1  0  0  0  0
  5  7  1  0  0  0  0
  5  9  1  0  0  0  0
  8 10  1  0  0  0  0
  8 23  2  0  0  0  0
  9 10  1  0  0  0  0
 10 11  1  0  0  0  0
 10 12  1  0  0  0  0
 13 14  2  0  0  0  0
 13 16  1  0  0  0  0
 13 24  1  0  0  0  0
 14 15  1  0  0  0  0
 14 18  1  0  0  0  0
 16 17  1  0  0  0  0
 16 20  2  0  0  0  0
 18 19  1  0  0  0  0
 18 22  2  0  0  0  0
 20 21  1  0  0  0  0
 20 22  1  0  0  0  0
 24 25  1  0  0  0  0
 24 26  1  0  0  0  0
 25 29  1  0  0  0  0
 25 32  2  0  0  0  0
 26 27  1  0  0  0  0
 26 28  1  0  0  0  0
 26 30  1  0  0  0  0
 29 30  1  0  0  0  0
 30 31  1  0  0  0  0
 30 33  1  0  0  0  0
 33 34  1  0  0  0  0
 33 35  1  0  0  0  0
 33 36  1  0  0  0  0
 36 37  1  0  0  0  0
 36 38  1  0  0  0  0
 38 41  1  0  0  0  0
 38 46  2  0  0  0  0
 39 40  1  0  0  0  0
 39 41  1  0  0  0  0
 40 42  2  0  0  0  0
 40 47  1  0  0  0  0
 41 44  2  0  0  0  0
 42 43  1  0  0  0  0
 42 44  1  0  0  0  0
 44 45  1  0  0  0  0
M  END
>  <mseq>
1

>  <S>
-11.646679

>  <E_conf>
1.5939243

>  <E_place>
-130.10606

>  <E_score1>
-11.646679

$$$$

  MOE2010           3D

 47 50  0  0  1  0  0  0  0  0999 V2000
   11.6050   17.8650   20.0800 C   0  0  0  0  0  0  0  0  0  0  0  0
   10.6760   17.0820   20.4930 H   0  0  0  0  0  0  0  0  0  0  0  0
   12.6380   17.1290   20.0960 H   0  0  0  0  0  0  0  0  0  0  0  0
   11.4020   18.3010   19.4110 N   0  0  0  0  0  0  0  0  0  0  0  0
   11.7170   18.2470   20.8040 C   0  0  0  0  0  0  0  0  0  0  0  0
   12.7060   18.0340   21.3760 H   0  0  0  0  0  0  0  0  0  0  0  0
   11.2840   17.7730   21.7670 H   0  0  0  0  0  0  0  0  0  0  0  0
   11.3120   19.1200   19.4640 C   0  0  0  0  0  0  0  0  0  0  0  0
   11.6270   19.0650   20.8560 O   0  0  0  0  0  0  0  0  0  0  0  0
   11.4240   19.5010   20.1860 C   0  0  0  0  0  0  0  0  0  0  0  0
   10.5390   20.2180   20.4570 H   0  0  0  0  0  0  0  0  0  0  0  0
   12.1480   20.4180   20.1020 H   0  0  0  0  0  0  0  0  0  0  0  0
   11.0650   17.1560   17.2420 C   0  0  0  0  0  0  0  0  0  0  0  0
   10.9750   17.9740   17.2950 C   0  0  0  0  0  0  0  0  0  0  0  0
   10.0640   18.7950   16.9810 H   0  0  0  0  0  0  0  0  0  0  0  0
   11.2680   16.7190   17.9120 C   0  0  0  0  0  0  0  0  0  0  0  0
   11.7440   15.6160   18.0710 H   0  0  0  0  0  0  0  0  0  0  0  0
   11.0870   18.3560   18.0180 C   0  0  0  0  0  0  0  0  0  0  0  0
   11.9300   19.2040   17.4010 H   0  0  0  0  0  0  0  0  0  0  0  0
   11.3800   17.1010   18.6350 C   0  0  0  0  0  0  0  0  0  0  0  0
   11.4450   16.1520   19.4150 H   0  0  0  0  0  0  0  0  0  0  0  0
   11.2900   17.9190   18.6870 C   0  0  0  0  0  0  0  0  0  0  0  0
   11.1100   19.5560   18.7930 O   0  0  0  0  0  0  0  0  0  0  0  0
   10.9530   16.7740   16.5200 N   0  0  0  0  0  0  0  0  0  0  0  0
   10.6820   16.0010   16.4170 C   0  0  0  0  0  0  0  0  0  0  0  0
   11.0920   17.0960   15.7740 C   0  0  0  0  0  0  0  0  0  0  0  0
   10.0480   17.9880   15.7120 H   0  0  0  0  0  0  0  0  0  0  0  0
   12.3120   17.6370   15.6250 H   0  0  0  0  0  0  0  0  0  0  0  0
   10.6530   15.8470   15.6070 O   0  0  0  0  0  0  0  0  0  0  0  0
   10.9070   16.5240   15.2100 C   0  0  1  0  0  0  0  0  0  0  0  0
   12.1670   16.0170   15.1260 H   0  0  0  0  0  0  0  0  0  0  0  0
   10.4760   15.4760   17.0180 O   0  0  0  0  0  0  0  0  0  0  0  0
   10.9650   16.6130   14.3920 C   0  0  0  0  0  0  0  0  0  0  0  0
   10.6760   17.8540   14.2600 H   0  0  0  0  0  0  0  0  0  0  0  0
    9.7990   16.3310   13.8680 H   0  0  0  0  0  0  0  0  0  0  0  0
   11.6770   16.4540   14.0090 N   0  0  0  0  0  0  0  0  0  0  0  0
   12.5490   16.9360   14.4780 H   0  0  0  0  0  0  0  0  0  0  0  0
   11.7350   16.5430   13.1900 C   0  0  0  0  0  0  0  0  0  0  0  0
   13.2030   16.4720   13.1330 S   0  0  0  0  0  0  0  0  0  0  0  0
   13.7540   16.2510   12.5610 C   0  0  0  0  0  0  0  0  0  0  0  0
   12.4490   16.3840   12.8080 C   0  0  0  0  0  0  0  0  0  0  0  0
   13.3410   16.0270   11.8820 C   0  0  0  0  0  0  0  0  0  0  0  0
   13.7250   15.6520   10.8300 H   0  0  0  0  0  0  0  0  0  0  0  0
   12.5350   16.1090   12.0350 C   0  0  0  0  0  0  0  0  0  0  0  0
   11.9400   15.9150   11.0490 H   0  0  0  0  0  0  0  0  0  0  0  0
   11.0810   16.7910   12.7550 O   0  0  0  0  0  0  0  0  0  0  0  0
   14.5740   16.2540   12.6500 Cl  0  0  0  0  0  0  0  0  0  0  0  0
  1  2  1  0  0  0  0
  1  3  1  0  0  0  0
  1  4  1  0  0  0  0
  1  5  1  0  0  0  0
  4  8  1  0  0  0  0
  4 22  1  0  0  0  0
  5  6  1  0  0  0  0
  5  7  1  0  0  0  0
  5  9  1  0  0  0  0
  8 10  1  0  0  0  0
  8 23  2  0  0  0  0
  9 10  1  0  0  0  0
 10 11  1  0  0  0  0
 10 12  1  0  0  0  0
 13 14  2  0  0  0  0
 13 16  1  0  0  0  0
 13 24  1  0  0  0  0
 14 15  1  0  0  0  0
 14 18  1  0  0  0  0
 16 17  1  0  0  0  0
 16 20  2  0  0  0  0
 18 19  1  0  0  0  0
 18 22  2  0  0  0  0
 20 21  1  0  0  0  0
 20 22  1  0  0  0  0
 24 25  1  0  0  0  0
 24 26  1  0  0  0  0
 25 29  1  0  0  0  0
 25 32  2  0  0  0  0
 26 27  1  0  0  0  0
 26 28  1  0  0  0  0
 26 30  1  0  0  0  0
 29 30  1  0  0  0  0
 30 31  1  0  0  0  0
 30 33  1  0  0  0  0
 33 34  1  0  0  0  0
 33 35  1  0  0  0  0
 33 36  1  0  0  0  0
 36 37  1  0  0  0  0
 36 38  1  0  0  0  0
 38 41  1  0  0  0  0
 38 46  2  0  0  0  0
 39 40  1  0  0  0  0
 39 41  1  0  0  0  0
 40 42  2  0  0  0  0
 40 47  1  0  0  0  0
 41 44  2  0  0  0  0
 42 43  1  0  0  0  0
 42 44  1  0  0  0  0
 44 45  1  0  0  0  0
M  END
>  <mseq>
1

>  <S>
-11.63136

>  <E_conf>
1.7985789

>  <E_place>
-149.0217

>  <E_score1>
-11.63136

$$$$

  MOE2010           3D

 47 50  0  0  1  0  0  0  0  0999 V2000
   12.8010   17.2440   21.0380 C   0  0  0  0  0  0  0  0  0  0  0  0
   12.7600   15.9720   21.1970 H   0  0  0  0  0  0  0  0  0  0  0  0
   13.9170   17.4330   20.4650 H   0  0  0  0  0  0  0  0  0  0  0  0
   12.1050   17.5660   20.7330 N   0  0  0  0  0  0  0  0  0  0  0  0
   13.0310   17.4160   21.8120 C   0  0  0  0  0  0  0  0  0  0  0  0
   14.1130   17.8080   21.9770 H   0  0  0  0  0  0  0  0  0  0  0  0
   13.4420   16.5670   22.4820 H   0  0  0  0  0  0  0  0  0  0  0  0
   11.6400   18.0610   21.2020 C   0  0  0  0  0  0  0  0  0  0  0  0
   12.5650   17.9110   22.2800 O   0  0  0  0  0  0  0  0  0  0  0  0
   11.8700   18.2330   21.9750 C   0  0  0  0  0  0  0  0  0  0  0  0
   11.0070   18.0640   22.7480 H   0  0  0  0  0  0  0  0  0  0  0  0
   11.8560   19.3810   22.2030 H   0  0  0  0  0  0  0  0  0  0  0  0
   11.4160   17.0500   18.4130 C   0  0  0  0  0  0  0  0  0  0  0  0
   10.8450   17.2060   18.9880 C   0  0  0  0  0  0  0  0  0  0  0  0
    9.8120   16.6070   19.4070 H   0  0  0  0  0  0  0  0  0  0  0  0
   12.2160   17.0660   18.6110 C   0  0  0  0  0  0  0  0  0  0  0  0
   13.2310   17.1770   17.9570 H   0  0  0  0  0  0  0  0  0  0  0  0
   11.0750   17.3780   19.7610 C   0  0  0  0  0  0  0  0  0  0  0  0
   10.3000   18.4770   19.7120 H   0  0  0  0  0  0  0  0  0  0  0  0
   12.4460   17.2380   19.3850 C   0  0  0  0  0  0  0  0  0  0  0  0
   13.6450   16.9620   19.3600 H   0  0  0  0  0  0  0  0  0  0  0  0
   11.8750   17.3940   19.9590 C   0  0  0  0  0  0  0  0  0  0  0  0
   10.9440   18.3830   20.8960 O   0  0  0  0  0  0  0  0  0  0  0  0
   11.1860   16.8780   17.6400 N   0  0  0  0  0  0  0  0  0  0  0  0
   10.4840   16.5080   17.4130 C   0  0  0  0  0  0  0  0  0  0  0  0
   11.6170   17.0440   16.9570 C   0  0  0  0  0  0  0  0  0  0  0  0
   11.4770   18.4110   16.9250 H   0  0  0  0  0  0  0  0  0  0  0  0
   12.8850   16.6030   16.9830 H   0  0  0  0  0  0  0  0  0  0  0  0
   10.4820   16.4470   16.5910 O   0  0  0  0  0  0  0  0  0  0  0  0
   11.1830   16.7780   16.3090 C   0  0  1  0  0  0  0  0  0  0  0  0
   11.7610   15.5470   16.2650 H   0  0  0  0  0  0  0  0  0  0  0  0
    9.8880   16.2470   17.9200 O   0  0  0  0  0  0  0  0  0  0  0  0
   11.4090   16.8340   15.5170 C   0  0  0  0  0  0  0  0  0  0  0  0
   10.2670   16.8500   14.9380 H   0  0  0  0  0  0  0  0  0  0  0  0
   11.5770   15.6200   15.0570 H   0  0  0  0  0  0  0  0  0  0  0  0
   11.8570   17.4760   15.2600 N   0  0  0  0  0  0  0  0  0  0  0  0
   11.4590   18.4500   15.5810 H   0  0  0  0  0  0  0  0  0  0  0  0
   12.0840   17.5310   14.4680 C   0  0  0  0  0  0  0  0  0  0  0  0
   12.5170   18.5050   13.4560 S   0  0  0  0  0  0  0  0  0  0  0  0
   13.0500   19.1350   13.4430 C   0  0  0  0  0  0  0  0  0  0  0  0
   12.5320   18.1740   14.2120 C   0  0  0  0  0  0  0  0  0  0  0  0
   13.3950   19.1930   14.1910 C   0  0  0  0  0  0  0  0  0  0  0  0
   14.2090   19.9370   14.6130 H   0  0  0  0  0  0  0  0  0  0  0  0
   13.0750   18.6000   14.6660 C   0  0  0  0  0  0  0  0  0  0  0  0
   13.6390   18.5870   15.6880 H   0  0  0  0  0  0  0  0  0  0  0  0
   11.8610   16.9440   13.9340 O   0  0  0  0  0  0  0  0  0  0  0  0
   13.2110   19.6210   12.7960 Cl  0  0  0  0  0  0  0  0  0  0  0  0
  1  2  1  0  0  0  0
  1  3  1  0  0  0  0
  1  4  1  0  0  0  0
  1  5  1  0  0  0  0
  4  8  1  0  0  0  0
  4 22  1  0  0  0  0
  5  6  1  0  0  0  0
  5  7  1  0  0  0  0
  5  9  1  0  0  0  0
  8 10  1  0  0  0  0
  8 23  2  0  0  0  0
  9 10  1  0  0  0  0
 10 11  1  0  0  0  0
 10 12  1  0  0  0  0
 13 14  2  0  0  0  0
 13 16  1  0  0  0  0
 13 24  1  0  0  0  0
 14 15  1  0  0  0  0
 14 18  1  0  0  0  0
 16 17  1  0  0  0  0
 16 20  2  0  0  0  0
 18 19  1  0  0  0  0
 18 22  2  0  0  0  0
 20 21  1  0  0  0  0
 20 22  1  0  0  0  0
 24 25  1  0  0  0  0
 24 26  1  0  0  0  0
 25 29  1  0  0  0  0
 25 32  2  0  0  0  0
 26 27  1  0  0  0  0
 26 28  1  0  0  0  0
 26 30  1  0  0  0  0
 29 30  1  0  0  0  0
 30 31  1  0  0  0  0
 30 33  1  0  0  0  0
 33 34  1  0  0  0  0
 33 35  1  0  0  0  0
 33 36  1  0  0  0  0
 36 37  1  0  0  0  0
 36 38  1  0  0  0  0
 38 41  1  0  0  0  0
 38 46  2  0  0  0  0
 39 40  1  0  0  0  0
 39 41  1  0  0  0  0
 40 42  2  0  0  0  0
 40 47  1  0  0  0  0
 41 44  2  0  0  0  0
 42 43  1  0  0  0  0
 42 44  1  0  0  0  0
 44 45  1  0  0  0  0
M  END
>  <mseq>
1

>  <S>
-11.599051

>  <E_conf>
1.3930171

>  <E_place>
-123.60773

>  <E_score1>
-11.599051

$$$$

  MOE2010           3D

 47 50  0  0  1  0  0  0  0  0999 V2000
    9.5740   14.7060   16.7080 C   0  0  0  0  0  0  0  0  0  0  0  0
    8.4320   15.2900   16.7110 H   0  0  0  0  0  0  0  0  0  0  0  0
   10.1510   15.1920   15.6880 H   0  0  0  0  0  0  0  0  0  0  0  0
    9.9470   14.6960   17.4440 N   0  0  0  0  0  0  0  0  0  0  0  0
    9.3060   14.0020   16.3720 C   0  0  0  0  0  0  0  0  0  0  0  0
    9.6340   13.7660   15.2820 H   0  0  0  0  0  0  0  0  0  0  0  0
    8.2690   13.9790   15.8590 H   0  0  0  0  0  0  0  0  0  0  0  0
   10.0520   13.9820   17.8430 C   0  0  0  0  0  0  0  0  0  0  0  0
    9.4110   13.2880   16.7720 O   0  0  0  0  0  0  0  0  0  0  0  0
    9.7840   13.2780   17.5080 C   0  0  0  0  0  0  0  0  0  0  0  0
    9.1360   12.6460   18.2490 H   0  0  0  0  0  0  0  0  0  0  0  0
   10.6030   12.4420   17.5030 H   0  0  0  0  0  0  0  0  0  0  0  0
   10.7530   16.8090   18.4520 C   0  0  0  0  0  0  0  0  0  0  0  0
   10.0960   16.8130   17.9530 C   0  0  0  0  0  0  0  0  0  0  0  0
    9.7680   17.4580   16.9130 H   0  0  0  0  0  0  0  0  0  0  0  0
   11.1420   16.0990   18.6150 C   0  0  0  0  0  0  0  0  0  0  0  0
   11.8960   15.7500   19.4970 H   0  0  0  0  0  0  0  0  0  0  0  0
    9.8270   16.1100   17.6170 C   0  0  0  0  0  0  0  0  0  0  0  0
    8.5950   16.4020   18.0700 H   0  0  0  0  0  0  0  0  0  0  0  0
   10.8730   15.3950   18.2780 C   0  0  0  0  0  0  0  0  0  0  0  0
   11.7880   14.6200   18.5520 H   0  0  0  0  0  0  0  0  0  0  0  0
   10.2160   15.4010   17.7800 C   0  0  0  0  0  0  0  0  0  0  0  0
   10.4250   13.9730   18.5800 O   0  0  0  0  0  0  0  0  0  0  0  0
   11.0210   17.5120   18.7880 N   0  0  0  0  0  0  0  0  0  0  0  0
   10.9560   18.2650   18.4550 C   0  0  0  0  0  0  0  0  0  0  0  0
   11.4030   17.5890   19.5150 C   0  0  0  0  0  0  0  0  0  0  0  0
   10.3440   17.3380   20.3550 H   0  0  0  0  0  0  0  0  0  0  0  0
   12.4590   16.7750   19.6720 H   0  0  0  0  0  0  0  0  0  0  0  0
   11.2970   18.8040   18.9770 O   0  0  0  0  0  0  0  0  0  0  0  0
   11.5720   18.3870   19.6320 C   0  0  1  0  0  0  0  0  0  0  0  0
   12.8180   18.3310   19.0870 H   0  0  0  0  0  0  0  0  0  0  0  0
   10.6110   18.4450   17.7270 O   0  0  0  0  0  0  0  0  0  0  0  0
   11.9520   18.7100   20.2890 C   0  0  0  0  0  0  0  0  0  0  0  0
   11.5360   17.9330   21.2180 H   0  0  0  0  0  0  0  0  0  0  0  0
   11.1810   19.6450   20.7850 H   0  0  0  0  0  0  0  0  0  0  0  0
   12.7750   18.7510   20.3120 N   0  0  0  0  0  0  0  0  0  0  0  0
   13.2720   17.8040   20.0500 H   0  0  0  0  0  0  0  0  0  0  0  0
   13.1550   19.0750   20.9700 C   0  0  0  0  0  0  0  0  0  0  0  0
   14.4470   19.0820   21.6700 S   0  0  0  0  0  0  0  0  0  0  0  0
   15.2360   19.1420   21.4380 C   0  0  0  0  0  0  0  0  0  0  0  0
   13.9780   19.1150   20.9920 C   0  0  0  0  0  0  0  0  0  0  0  0
   15.2550   19.2110   20.6160 C   0  0  0  0  0  0  0  0  0  0  0  0
   16.1630   19.3280   19.8690 H   0  0  0  0  0  0  0  0  0  0  0  0
   14.4780   19.1950   20.3400 C   0  0  0  0  0  0  0  0  0  0  0  0
   14.4770   19.4150   19.1930 H   0  0  0  0  0  0  0  0  0  0  0  0
   12.7110   19.3580   21.6040 O   0  0  0  0  0  0  0  0  0  0  0  0
   15.8920   19.1330   21.9390 Cl  0  0  0  0  0  0  0  0  0  0  0  0
  1  2  1  0  0  0  0
  1  3  1  0  0  0  0
  1  4  1  0  0  0  0
  1  5  1  0  0  0  0
  4  8  1  0  0  0  0
  4 22  1  0  0  0  0
  5  6  1  0  0  0  0
  5  7  1  0  0  0  0
  5  9  1  0  0  0  0
  8 10  1  0  0  0  0
  8 23  2  0  0  0  0
  9 10  1  0  0  0  0
 10 11  1  0  0  0  0
 10 12  1  0  0  0  0
 13 14  2  0  0  0  0
 13 16  1  0  0  0  0
 13 24  1  0  0  0  0
 14 15  1  0  0  0  0
 14 18  1  0  0  0  0
 16 17  1  0  0  0  0
 16 20  2  0  0  0  0
 18 19  1  0  0  0  0
 18 22  2  0  0  0  0
 20 21  1  0  0  0  0
 20 22  1  0  0  0  0
 24 25  1  0  0  0  0
 24 26  1  0  0  0  0
 25 29  1  0  0  0  0
 25 32  2  0  0  0  0
 26 27  1  0  0  0  0
 26 28  1  0  0  0  0
 26 30  1  0  0  0  0
 29 30  1  0  0  0  0
 30 31  1  0  0  0  0
 30 33  1  0  0  0  0
 33 34  1  0  0  0  0
 33 35  1  0  0  0  0
 33 36  1  0  0  0  0
 36 37  1  0  0  0  0
 36 38  1  0  0  0  0
 38 41  1  0  0  0  0
 38 46  2  0  0  0  0
 39 40  1  0  0  0  0
 39 41  1  0  0  0  0
 40 42  2  0  0  0  0
 40 47  1  0  0  0  0
 41 44  2  0  0  0  0
 42 43  1  0  0  0  0
 42 44  1  0  0  0  0
 44 45  1  0  0  0  0
M  END
>  <mseq>
1

>  <S>
-11.588947

>  <E_conf>
1.9929979

>  <E_place>
-130.46681

>  <E_score1>
-11.588947

$$$$

  MOE2010           3D

 47 50  0  0  1  0  0  0  0  0999 V2000
   14.5040   21.0770   13.4170 C   0  0  0  0  0  0  0  0  0  0  0  0
   14.0880   21.6060   14.5090 H   0  0  0  0  0  0  0  0  0  0  0  0
   15.5470   20.4490   13.7720 H   0  0  0  0  0  0  0  0  0  0  0  0
   13.9120   20.7070   12.9770 N   0  0  0  0  0  0  0  0  0  0  0  0
   14.8660   21.7600   13.1280 C   0  0  0  0  0  0  0  0  0  0  0  0
   16.0280   21.7780   13.0890 H   0  0  0  0  0  0  0  0  0  0  0  0
   15.0690   22.6410   13.8500 H   0  0  0  0  0  0  0  0  0  0  0  0
   13.6830   21.0190   12.2490 C   0  0  0  0  0  0  0  0  0  0  0  0
   14.6360   22.0720   12.4000 O   0  0  0  0  0  0  0  0  0  0  0  0
   14.0450   21.7020   11.9600 C   0  0  0  0  0  0  0  0  0  0  0  0
   13.2710   22.5090   11.6160 H   0  0  0  0  0  0  0  0  0  0  0  0
   14.4160   21.5800   10.8570 H   0  0  0  0  0  0  0  0  0  0  0  0
   12.8260   18.6580   13.8430 C   0  0  0  0  0  0  0  0  0  0  0  0
   13.1160   19.2250   14.3680 C   0  0  0  0  0  0  0  0  0  0  0  0
   13.9010   19.2050   15.3610 H   0  0  0  0  0  0  0  0  0  0  0  0
   12.8980   18.7740   13.0300 C   0  0  0  0  0  0  0  0  0  0  0  0
   12.3290   18.2990   12.0700 H   0  0  0  0  0  0  0  0  0  0  0  0
   13.4780   19.9080   14.0800 C   0  0  0  0  0  0  0  0  0  0  0  0
   12.6600   20.6340   14.8640 H   0  0  0  0  0  0  0  0  0  0  0  0
   13.2600   19.4570   12.7410 C   0  0  0  0  0  0  0  0  0  0  0  0
   13.3850   19.1920   11.5470 H   0  0  0  0  0  0  0  0  0  0  0  0
   13.5500   20.0240   13.2660 C   0  0  0  0  0  0  0  0  0  0  0  0
   13.0910   20.6480   11.8090 O   0  0  0  0  0  0  0  0  0  0  0  0
   12.4640   17.9760   14.1320 N   0  0  0  0  0  0  0  0  0  0  0  0
   12.4580   17.2370   13.7640 C   0  0  0  0  0  0  0  0  0  0  0  0
   12.0430   17.9110   14.8380 C   0  0  0  0  0  0  0  0  0  0  0  0
   13.0830   17.9980   15.7320 H   0  0  0  0  0  0  0  0  0  0  0  0
   11.0800   18.8330   14.9940 H   0  0  0  0  0  0  0  0  0  0  0  0
   12.0350   16.7170   14.2430 O   0  0  0  0  0  0  0  0  0  0  0  0
   11.7780   17.1330   14.9070 C   0  0  1  0  0  0  0  0  0  0  0  0
   10.5740   17.3570   14.3150 H   0  0  0  0  0  0  0  0  0  0  0  0
   12.8150   17.0520   13.0430 O   0  0  0  0  0  0  0  0  0  0  0  0
   11.3340   16.8260   15.5310 C   0  0  0  0  0  0  0  0  0  0  0  0
   11.6710   15.5910   15.4840 H   0  0  0  0  0  0  0  0  0  0  0  0
   10.1620   16.4790   15.0630 H   0  0  0  0  0  0  0  0  0  0  0  0
   11.4440   17.1120   16.2960 N   0  0  0  0  0  0  0  0  0  0  0  0
   12.4990   17.1580   16.6040 H   0  0  0  0  0  0  0  0  0  0  0  0
   11.0000   16.8050   16.9200 C   0  0  0  0  0  0  0  0  0  0  0  0
   11.0010   17.8730   17.9300 S   0  0  0  0  0  0  0  0  0  0  0  0
   11.1720   17.9140   18.7350 C   0  0  0  0  0  0  0  0  0  0  0  0
   11.1100   17.0920   17.6850 C   0  0  0  0  0  0  0  0  0  0  0  0
   11.3870   17.1580   18.9890 C   0  0  0  0  0  0  0  0  0  0  0  0
   11.7150   16.7630   20.0520 H   0  0  0  0  0  0  0  0  0  0  0  0
   11.3480   16.6510   18.3400 C   0  0  0  0  0  0  0  0  0  0  0  0
   11.7670   15.6060   18.6500 H   0  0  0  0  0  0  0  0  0  0  0  0
   10.4460   16.2100   16.7780 O   0  0  0  0  0  0  0  0  0  0  0  0
   11.1350   18.5910   19.2060 Cl  0  0  0  0  0  0  0  0  0  0  0  0
  1  2  1  0  0  0  0
  1  3  1  0  0  0  0
  1  4  1  0  0  0  0
  1  5  1  0  0  0  0
  4  8  1  0  0  0  0
  4 22  1  0  0  0  0
  5  6  1  0  0  0  0
  5  7  1  0  0  0  0
  5  9  1  0  0  0  0
  8 10  1  0  0  0  0
  8 23  2  0  0  0  0
  9 10  1  0  0  0  0
 10 11  1  0  0  0  0
 10 12  1  0  0  0  0
 13 14  2  0  0  0  0
 13 16  1  0  0  0  0
 13 24  1  0  0  0  0
 14 15  1  0  0  0  0
 14 18  1  0  0  0  0
 16 17  1  0  0  0  0
 16 20  2  0  0  0  0
 18 19  1  0  0  0  0
 18 22  2  0  0  0  0
 20 21  1  0  0  0  0
 20 22  1  0  0  0  0
 24 25  1  0  0  0  0
 24 26  1  0  0  0  0
 25 29  1  0  0  0  0
 25 32  2  0  0  0  0
 26 27  1  0  0  0  0
 26 28  1  0  0  0  0
 26 30  1  0  0  0  0
 29 30  1  0  0  0  0
 30 31  1  0  0  0  0
 30 33  1  0  0  0  0
 33 34  1  0  0  0  0
 33 35  1  0  0  0  0
 33 36  1  0  0  0  0
 36 37  1  0  0  0  0
 36 38  1  0  0  0  0
 38 41  1  0  0  0  0
 38 46  2  0  0  0  0
 39 40  1  0  0  0  0
 39 41  1  0  0  0  0
 40 42  2  0  0  0  0
 40 47  1  0  0  0  0
 41 44  2  0  0  0  0
 42 43  1  0  0  0  0
 42 44  1  0  0  0  0
 44 45  1  0  0  0  0
M  END
>  <mseq>
1

>  <S>
-11.551569

>  <E_conf>
1.9929996

>  <E_place>
-142.77963

>  <E_score1>
-11.551569

$$$$

  MOE2010           3D

 47 50  0  0  1  0  0  0  0  0999 V2000
    9.9150   15.1190   19.0770 C   0  0  0  0  0  0  0  0  0  0  0  0
   10.7920   15.3900   19.9730 H   0  0  0  0  0  0  0  0  0  0  0  0
    8.8510   15.6310   19.5410 H   0  0  0  0  0  0  0  0  0  0  0  0
   10.1630   15.2770   18.3060 N   0  0  0  0  0  0  0  0  0  0  0  0
    9.7890   14.3390   19.3180 C   0  0  0  0  0  0  0  0  0  0  0  0
    8.7690   14.0880   19.8160 H   0  0  0  0  0  0  0  0  0  0  0  0
   10.1620   14.0030   20.3610 H   0  0  0  0  0  0  0  0  0  0  0  0
   10.2850   14.6560   17.7770 C   0  0  0  0  0  0  0  0  0  0  0  0
    9.9120   13.7190   18.7880 O   0  0  0  0  0  0  0  0  0  0  0  0
   10.1600   13.8780   18.0170 C   0  0  0  0  0  0  0  0  0  0  0  0
   11.0630   13.1780   17.7620 H   0  0  0  0  0  0  0  0  0  0  0  0
    9.4810   13.2810   17.2740 H   0  0  0  0  0  0  0  0  0  0  0  0
   10.5390   17.6140   17.5830 C   0  0  0  0  0  0  0  0  0  0  0  0
   10.6560   17.4020   18.3720 C   0  0  0  0  0  0  0  0  0  0  0  0
   10.2370   17.8350   19.4850 H   0  0  0  0  0  0  0  0  0  0  0  0
   10.2960   17.0470   17.0350 C   0  0  0  0  0  0  0  0  0  0  0  0
   10.3380   16.9910   15.8250 H   0  0  0  0  0  0  0  0  0  0  0  0
   10.5310   16.6230   18.6130 C   0  0  0  0  0  0  0  0  0  0  0  0
   11.7520   16.6360   19.1770 H   0  0  0  0  0  0  0  0  0  0  0  0
   10.1710   16.2680   17.2770 C   0  0  0  0  0  0  0  0  0  0  0  0
    9.6250   15.7810   16.2870 H   0  0  0  0  0  0  0  0  0  0  0  0
   10.2880   16.0560   18.0650 C   0  0  0  0  0  0  0  0  0  0  0  0
   10.5340   14.8150   17.0060 O   0  0  0  0  0  0  0  0  0  0  0  0
   10.6640   18.3920   17.3420 N   0  0  0  0  0  0  0  0  0  0  0  0
   10.5650   19.0670   17.8080 C   0  0  0  0  0  0  0  0  0  0  0  0
   10.9110   18.6360   16.5930 C   0  0  0  0  0  0  0  0  0  0  0  0
   12.2170   18.2080   16.6330 H   0  0  0  0  0  0  0  0  0  0  0  0
   10.1800   18.1370   15.5830 H   0  0  0  0  0  0  0  0  0  0  0  0
   10.7500   19.7250   17.3460 O   0  0  0  0  0  0  0  0  0  0  0  0
   10.9640   19.4580   16.5960 C   0  0  1  0  0  0  0  0  0  0  0  0
    9.6970   19.6680   16.1470 H   0  0  0  0  0  0  0  0  0  0  0  0
   10.3230   19.0800   18.5960 O   0  0  0  0  0  0  0  0  0  0  0  0
   11.1920   19.9310   15.9590 C   0  0  0  0  0  0  0  0  0  0  0  0
   11.6610   20.9540   16.5710 H   0  0  0  0  0  0  0  0  0  0  0  0
   10.1650   20.6650   15.6120 H   0  0  0  0  0  0  0  0  0  0  0  0
   11.7480   19.6550   15.4180 N   0  0  0  0  0  0  0  0  0  0  0  0
   12.6520   19.2380   15.8860 H   0  0  0  0  0  0  0  0  0  0  0  0
   11.9750   20.1280   14.7810 C   0  0  0  0  0  0  0  0  0  0  0  0
   12.8110   20.2600   13.5790 S   0  0  0  0  0  0  0  0  0  0  0  0
   13.3590   19.7790   13.1940 C   0  0  0  0  0  0  0  0  0  0  0  0
   12.5320   19.8510   14.2390 C   0  0  0  0  0  0  0  0  0  0  0  0
   13.4180   19.0720   13.6160 C   0  0  0  0  0  0  0  0  0  0  0  0
   14.0700   18.1060   13.4220 H   0  0  0  0  0  0  0  0  0  0  0  0
   12.9080   19.1170   14.2620 C   0  0  0  0  0  0  0  0  0  0  0  0
   12.8850   18.0810   14.8010 H   0  0  0  0  0  0  0  0  0  0  0  0
   11.6460   20.8780   14.6860 O   0  0  0  0  0  0  0  0  0  0  0  0
   13.7750   19.9690   12.5080 Cl  0  0  0  0  0  0  0  0  0  0  0  0
  1  2  1  0  0  0  0
  1  3  1  0  0  0  0
  1  4  1  0  0  0  0
  1  5  1  0  0  0  0
  4  8  1  0  0  0  0
  4 22  1  0  0  0  0
  5  6  1  0  0  0  0
  5  7  1  0  0  0  0
  5  9  1  0  0  0  0
  8 10  1  0  0  0  0
  8 23  2  0  0  0  0
  9 10  1  0  0  0  0
 10 11  1  0  0  0  0
 10 12  1  0  0  0  0
 13 14  2  0  0  0  0
 13 16  1  0  0  0  0
 13 24  1  0  0  0  0
 14 15  1  0  0  0  0
 14 18  1  0  0  0  0
 16 17  1  0  0  0  0
 16 20  2  0  0  0  0
 18 19  1  0  0  0  0
 18 22  2  0  0  0  0
 20 21  1  0  0  0  0
 20 22  1  0  0  0  0
 24 25  1  0  0  0  0
 24 26  1  0  0  0  0
 25 29  1  0  0  0  0
 25 32  2  0  0  0  0
 26 27  1  0  0  0  0
 26 28  1  0  0  0  0
 26 30  1  0  0  0  0
 29 30  1  0  0  0  0
 30 31  1  0  0  0  0
 30 33  1  0  0  0  0
 33 34  1  0  0  0  0
 33 35  1  0  0  0  0
 33 36  1  0  0  0  0
 36 37  1  0  0  0  0
 36 38  1  0  0  0  0
 38 41  1  0  0  0  0
 38 46  2  0  0  0  0
 39 40  1  0  0  0  0
 39 41  1  0  0  0  0
 40 42  2  0  0  0  0
 40 47  1  0  0  0  0
 41 44  2  0  0  0  0
 42 43  1  0  0  0  0
 42 44  1  0  0  0  0
 44 45  1  0  0  0  0
M  END
>  <mseq>
1

>  <S>
-11.550283

>  <E_conf>
1.7930005

>  <E_place>
-125.99008

>  <E_score1>
-11.550283

$$$$

  MOE2010           3D

 47 50  0  0  1  0  0  0  0  0999 V2000
   12.1420   18.6990   20.2490 C   0  0  0  0  0  0  0  0  0  0  0  0
   12.5560   19.5370   19.3710 H   0  0  0  0  0  0  0  0  0  0  0  0
   10.9210   19.0070   20.3980 H   0  0  0  0  0  0  0  0  0  0  0  0
   12.3700   17.9200   20.1020 N   0  0  0  0  0  0  0  0  0  0  0  0
   12.4500   19.1030   20.8990 C   0  0  0  0  0  0  0  0  0  0  0  0
   11.6950   19.6150   21.6200 H   0  0  0  0  0  0  0  0  0  0  0  0
   12.7820   20.2050   20.7750 H   0  0  0  0  0  0  0  0  0  0  0  0
   12.9060   17.5450   20.6060 C   0  0  0  0  0  0  0  0  0  0  0  0
   12.9850   18.7280   21.4020 O   0  0  0  0  0  0  0  0  0  0  0  0
   13.2130   17.9490   21.2560 C   0  0  0  0  0  0  0  0  0  0  0  0
   14.3800   17.8810   21.3160 H   0  0  0  0  0  0  0  0  0  0  0  0
   13.1210   17.3370   22.2490 H   0  0  0  0  0  0  0  0  0  0  0  0
   11.4490   16.7070   18.1510 C   0  0  0  0  0  0  0  0  0  0  0  0
   11.5430   17.5270   18.1210 C   0  0  0  0  0  0  0  0  0  0  0  0
   10.7860   18.5040   17.8460 H   0  0  0  0  0  0  0  0  0  0  0  0
   11.6620   16.2930   18.8310 C   0  0  0  0  0  0  0  0  0  0  0  0
   11.9140   15.1270   19.0470 H   0  0  0  0  0  0  0  0  0  0  0  0
   11.8500   17.9310   18.7710 C   0  0  0  0  0  0  0  0  0  0  0  0
   12.7400   18.5130   17.9470 H   0  0  0  0  0  0  0  0  0  0  0  0
   11.9690   16.6970   19.4820 C   0  0  0  0  0  0  0  0  0  0  0  0
   11.9600   15.8250   20.3490 H   0  0  0  0  0  0  0  0  0  0  0  0
   12.0630   17.5160   19.4510 C   0  0  0  0  0  0  0  0  0  0  0  0
   13.1340   16.7660   20.4580 O   0  0  0  0  0  0  0  0  0  0  0  0
   11.1420   16.3030   17.5010 N   0  0  0  0  0  0  0  0  0  0  0  0
   10.4540   15.8460   17.4950 C   0  0  0  0  0  0  0  0  0  0  0  0
   11.4660   16.2840   16.7430 C   0  0  0  0  0  0  0  0  0  0  0  0
   11.1960   17.5710   16.3460 H   0  0  0  0  0  0  0  0  0  0  0  0
   12.7630   15.9380   16.7080 H   0  0  0  0  0  0  0  0  0  0  0  0
   10.3550   15.5460   16.7330 O   0  0  0  0  0  0  0  0  0  0  0  0
   10.9810   15.8160   16.2690 C   0  0  1  0  0  0  0  0  0  0  0  0
   11.6620   14.6590   16.4930 H   0  0  0  0  0  0  0  0  0  0  0  0
    9.9540   15.7140   18.1370 O   0  0  0  0  0  0  0  0  0  0  0  0
   11.1010   15.6480   15.4700 C   0  0  0  0  0  0  0  0  0  0  0  0
    9.8990   15.4310   15.0840 H   0  0  0  0  0  0  0  0  0  0  0  0
   11.3230   14.3630   15.3540 H   0  0  0  0  0  0  0  0  0  0  0  0
   11.4510   16.2090   14.9780 N   0  0  0  0  0  0  0  0  0  0  0  0
   12.2960   16.7390   15.4440 H   0  0  0  0  0  0  0  0  0  0  0  0
   10.9820   16.7590   14.5790 C   0  0  0  0  0  0  0  0  0  0  0  0
   11.7960   17.1590   13.4220 S   0  0  0  0  0  0  0  0  0  0  0  0
   12.0330   17.8790   13.0970 C   0  0  0  0  0  0  0  0  0  0  0  0
   11.3340   17.3200   14.0870 C   0  0  0  0  0  0  0  0  0  0  0  0
   11.7180   18.4850   13.5610 C   0  0  0  0  0  0  0  0  0  0  0  0
   11.8090   19.6590   13.4700 H   0  0  0  0  0  0  0  0  0  0  0  0
   11.2860   18.1390   14.1730 C   0  0  0  0  0  0  0  0  0  0  0  0
   10.9350   18.9740   14.9100 H   0  0  0  0  0  0  0  0  0  0  0  0
   10.1630   16.7470   14.6720 O   0  0  0  0  0  0  0  0  0  0  0  0
   12.5030   17.9780   12.4260 Cl  0  0  0  0  0  0  0  0  0  0  0  0
  1  2  1  0  0  0  0
  1  3  1  0  0  0  0
  1  4  1  0  0  0  0
  1  5  1  0  0  0  0
  4  8  1  0  0  0  0
  4 22  1  0  0  0  0
  5  6  1  0  0  0  0
  5  7  1  0  0  0  0
  5  9  1  0  0  0  0
  8 10  1  0  0  0  0
  8 23  2  0  0  0  0
  9 10  1  0  0  0  0
 10 11  1  0  0  0  0
 10 12  1  0  0  0  0
 13 14  2  0  0  0  0
 13 16  1  0  0  0  0
 13 24  1  0  0  0  0
 14 15  1  0  0  0  0
 14 18  1  0  0  0  0
 16 17  1  0  0  0  0
 16 20  2  0  0  0  0
 18 19  1  0  0  0  0
 18 22  2  0  0  0  0
 20 21  1  0  0  0  0
 20 22  1  0  0  0  0
 24 25  1  0  0  0  0
 24 26  1  0  0  0  0
 25 29  1  0  0  0  0
 25 32  2  0  0  0  0
 26 27  1  0  0  0  0
 26 28  1  0  0  0  0
 26 30  1  0  0  0  0
 29 30  1  0  0  0  0
 30 31  1  0  0  0  0
 30 33  1  0  0  0  0
 33 34  1  0  0  0  0
 33 35  1  0  0  0  0
 33 36  1  0  0  0  0
 36 37  1  0  0  0  0
 36 38  1  0  0  0  0
 38 41  1  0  0  0  0
 38 46  2  0  0  0  0
 39 40  1  0  0  0  0
 39 41  1  0  0  0  0
 40 42  2  0  0  0  0
 40 47  1  0  0  0  0
 41 44  2  0  0  0  0
 42 43  1  0  0  0  0
 42 44  1  0  0  0  0
 44 45  1  0  0  0  0
M  END
>  <mseq>
1

>  <S>
-11.481313

>  <E_conf>
2.3930051

>  <E_place>
-144.69695

>  <E_score1>
-11.481313

$$$$

  MOE2010           3D

 47 50  0  0  1  0  0  0  0  0999 V2000
   11.1550   21.7250   14.6800 C   0  0  0  0  0  0  0  0  0  0  0  0
   10.2540   21.0310   14.0870 H   0  0  0  0  0  0  0  0  0  0  0  0
   10.4940   22.4220   15.5080 H   0  0  0  0  0  0  0  0  0  0  0  0
   11.8110   21.2870   14.9200 N   0  0  0  0  0  0  0  0  0  0  0  0
   11.2320   22.2880   14.0820 C   0  0  0  0  0  0  0  0  0  0  0  0
   10.8380   23.3600   14.2980 H   0  0  0  0  0  0  0  0  0  0  0  0
   10.4150   22.3610   13.2650 H   0  0  0  0  0  0  0  0  0  0  0  0
   12.5440   21.4110   14.5630 C   0  0  0  0  0  0  0  0  0  0  0  0
   11.9650   22.4120   13.7240 O   0  0  0  0  0  0  0  0  0  0  0  0
   12.6210   21.9740   13.9650 C   0  0  0  0  0  0  0  0  0  0  0  0
   13.1580   21.5500   13.0150 H   0  0  0  0  0  0  0  0  0  0  0  0
   13.5160   22.7060   14.1490 H   0  0  0  0  0  0  0  0  0  0  0  0
   11.5810   19.5980   16.7150 C   0  0  0  0  0  0  0  0  0  0  0  0
   10.9410   19.7660   16.2220 C   0  0  0  0  0  0  0  0  0  0  0  0
    9.7340   20.0990   16.4080 H   0  0  0  0  0  0  0  0  0  0  0  0
   12.2980   19.9920   16.6100 C   0  0  0  0  0  0  0  0  0  0  0  0
   13.4350   19.7520   16.9530 H   0  0  0  0  0  0  0  0  0  0  0  0
   11.0180   20.3290   15.6250 C   0  0  0  0  0  0  0  0  0  0  0  0
   10.5340   19.4240   14.7550 H   0  0  0  0  0  0  0  0  0  0  0  0
   12.3750   20.5560   16.0110 C   0  0  0  0  0  0  0  0  0  0  0  0
   13.4570   21.0710   16.2870 H   0  0  0  0  0  0  0  0  0  0  0  0
   11.7340   20.7240   15.5190 C   0  0  0  0  0  0  0  0  0  0  0  0
   13.2000   20.9720   14.8040 O   0  0  0  0  0  0  0  0  0  0  0  0
   11.5050   19.0350   17.3130 N   0  0  0  0  0  0  0  0  0  0  0  0
   10.8110   18.8510   17.7200 C   0  0  0  0  0  0  0  0  0  0  0  0
   12.1080   18.5580   17.6110 C   0  0  0  0  0  0  0  0  0  0  0  0
   12.2800   17.7140   16.5400 H   0  0  0  0  0  0  0  0  0  0  0  0
   13.2070   19.2290   17.9890 H   0  0  0  0  0  0  0  0  0  0  0  0
   10.9860   18.2600   18.2680 O   0  0  0  0  0  0  0  0  0  0  0  0
   11.7870   18.0790   18.2000 C   0  0  1  0  0  0  0  0  0  0  0  0
   12.0770   18.9270   19.2240 H   0  0  0  0  0  0  0  0  0  0  0  0
   10.0720   19.1970   17.5990 O   0  0  0  0  0  0  0  0  0  0  0  0
   12.1970   17.5170   18.6440 C   0  0  0  0  0  0  0  0  0  0  0  0
   13.0520   17.1030   17.7850 H   0  0  0  0  0  0  0  0  0  0  0  0
   11.5790   16.3690   18.5170 H   0  0  0  0  0  0  0  0  0  0  0  0
   12.5870   17.7410   19.3350 N   0  0  0  0  0  0  0  0  0  0  0  0
   13.5720   17.2670   19.4610 H   0  0  0  0  0  0  0  0  0  0  0  0
   12.1900   17.7200   20.0590 C   0  0  0  0  0  0  0  0  0  0  0  0
   13.3890   17.8690   20.8950 S   0  0  0  0  0  0  0  0  0  0  0  0
   13.5410   18.1620   21.6510 C   0  0  0  0  0  0  0  0  0  0  0  0
   12.5800   17.9450   20.7490 C   0  0  0  0  0  0  0  0  0  0  0  0
   12.8250   18.4180   21.9730 C   0  0  0  0  0  0  0  0  0  0  0  0
   12.5750   18.8940   23.0250 H   0  0  0  0  0  0  0  0  0  0  0  0
   12.2320   18.2840   21.4160 C   0  0  0  0  0  0  0  0  0  0  0  0
   11.1960   18.5250   21.8980 H   0  0  0  0  0  0  0  0  0  0  0  0
   11.4030   17.4750   20.0900 O   0  0  0  0  0  0  0  0  0  0  0  0
   14.2770   18.1930   22.0210 Cl  0  0  0  0  0  0  0  0  0  0  0  0
  1  2  1  0  0  0  0
  1  3  1  0  0  0  0
  1  4  1  0  0  0  0
  1  5  1  0  0  0  0
  4  8  1  0  0  0  0
  4 22  1  0  0  0  0
  5  6  1  0  0  0  0
  5  7  1  0  0  0  0
  5  9  1  0  0  0  0
  8 10  1  0  0  0  0
  8 23  2  0  0  0  0
  9 10  1  0  0  0  0
 10 11  1  0  0  0  0
 10 12  1  0  0  0  0
 13 14  2  0  0  0  0
 13 16  1  0  0  0  0
 13 24  1  0  0  0  0
 14 15  1  0  0  0  0
 14 18  1  0  0  0  0
 16 17  1  0  0  0  0
 16 20  2  0  0  0  0
 18 19  1  0  0  0  0
 18 22  2  0  0  0  0
 20 21  1  0  0  0  0
 20 22  1  0  0  0  0
 24 25  1  0  0  0  0
 24 26  1  0  0  0  0
 25 29  1  0  0  0  0
 25 32  2  0  0  0  0
 26 27  1  0  0  0  0
 26 28  1  0  0  0  0
 26 30  1  0  0  0  0
 29 30  1  0  0  0  0
 30 31  1  0  0  0  0
 30 33  1  0  0  0  0
 33 34  1  0  0  0  0
 33 35  1  0  0  0  0
 33 36  1  0  0  0  0
 36 37  1  0  0  0  0
 36 38  1  0  0  0  0
 38 41  1  0  0  0  0
 38 46  2  0  0  0  0
 39 40  1  0  0  0  0
 39 41  1  0  0  0  0
 40 42  2  0  0  0  0
 40 47  1  0  0  0  0
 41 44  2  0  0  0  0
 42 43  1  0  0  0  0
 42 44  1  0  0  0  0
 44 45  1  0  0  0  0
M  END
>  <mseq>
1

>  <S>
-11.467175

>  <E_conf>
0.99490136

>  <E_place>
-120.50701

>  <E_score1>
-11.467175

$$$$

  MOE2010           3D

 47 50  0  0  1  0  0  0  0  0999 V2000
   10.3900   14.9430   14.9600 C   0  0  0  0  0  0  0  0  0  0  0  0
   11.4390   14.2130   15.0610 H   0  0  0  0  0  0  0  0  0  0  0  0
    9.5240   14.3120   15.6390 H   0  0  0  0  0  0  0  0  0  0  0  0
   10.5270   15.7470   15.0870 N   0  0  0  0  0  0  0  0  0  0  0  0
   10.1750   14.6750   14.2100 C   0  0  0  0  0  0  0  0  0  0  0  0
    9.2260   14.0090   14.1280 H   0  0  0  0  0  0  0  0  0  0  0  0
   10.6550   13.7070   13.7960 H   0  0  0  0  0  0  0  0  0  0  0  0
   10.4500   16.2820   14.4640 C   0  0  0  0  0  0  0  0  0  0  0  0
   10.0980   15.2110   13.5870 O   0  0  0  0  0  0  0  0  0  0  0  0
   10.2350   16.0150   13.7140 C   0  0  0  0  0  0  0  0  0  0  0  0
   10.9480   16.4110   12.8750 H   0  0  0  0  0  0  0  0  0  0  0  0
    9.3480   16.6250   13.2560 H   0  0  0  0  0  0  0  0  0  0  0  0
   11.1720   16.5510   17.3380 C   0  0  0  0  0  0  0  0  0  0  0  0
   11.3830   15.7910   17.0950 C   0  0  0  0  0  0  0  0  0  0  0  0
   11.2390   14.6280   17.5730 H   0  0  0  0  0  0  0  0  0  0  0  0
   10.7460   17.0430   16.8300 C   0  0  0  0  0  0  0  0  0  0  0  0
   10.5730   18.2420   16.7890 H   0  0  0  0  0  0  0  0  0  0  0  0
   11.1680   15.5230   16.3450 C   0  0  0  0  0  0  0  0  0  0  0  0
   12.4510   15.1740   16.1380 H   0  0  0  0  0  0  0  0  0  0  0  0
   10.5310   16.7750   16.0800 C   0  0  0  0  0  0  0  0  0  0  0  0
    9.7510   17.6510   15.7120 H   0  0  0  0  0  0  0  0  0  0  0  0
   10.7420   16.0150   15.8380 C   0  0  0  0  0  0  0  0  0  0  0  0
   10.5880   17.0860   14.5920 O   0  0  0  0  0  0  0  0  0  0  0  0
   11.3870   16.8190   18.0870 N   0  0  0  0  0  0  0  0  0  0  0  0
   11.4850   16.3510   18.7600 C   0  0  0  0  0  0  0  0  0  0  0  0
   11.5410   17.6010   18.2980 C   0  0  0  0  0  0  0  0  0  0  0  0
   12.7420   17.7780   17.6520 H   0  0  0  0  0  0  0  0  0  0  0  0
   10.5750   18.4670   17.9500 H   0  0  0  0  0  0  0  0  0  0  0  0
   11.6990   16.8450   19.3850 O   0  0  0  0  0  0  0  0  0  0  0  0
   11.7340   17.6170   19.0980 C   0  0  1  0  0  0  0  0  0  0  0  0
   10.4650   17.8470   19.5300 H   0  0  0  0  0  0  0  0  0  0  0  0
   11.3850   15.5330   18.8000 O   0  0  0  0  0  0  0  0  0  0  0  0
   11.9290   18.2890   19.5370 C   0  0  0  0  0  0  0  0  0  0  0  0
   10.7670   18.6910   19.8950 H   0  0  0  0  0  0  0  0  0  0  0  0
   11.9810   19.3080   18.7180 H   0  0  0  0  0  0  0  0  0  0  0  0
   12.4140   18.2230   20.2000 N   0  0  0  0  0  0  0  0  0  0  0  0
   13.2590   17.5310   20.0620 H   0  0  0  0  0  0  0  0  0  0  0  0
   12.0810   18.0880   20.9440 C   0  0  0  0  0  0  0  0  0  0  0  0
   13.2960   18.3950   21.7120 S   0  0  0  0  0  0  0  0  0  0  0  0
   13.5900   18.1750   22.4510 C   0  0  0  0  0  0  0  0  0  0  0  0
   12.5670   18.0210   21.6060 C   0  0  0  0  0  0  0  0  0  0  0  0
   13.0430   17.6650   22.8010 C   0  0  0  0  0  0  0  0  0  0  0  0
   13.0600   17.1100   23.8440 H   0  0  0  0  0  0  0  0  0  0  0  0
   12.4120   17.5710   22.2800 C   0  0  0  0  0  0  0  0  0  0  0  0
   11.6880   16.7590   22.7040 H   0  0  0  0  0  0  0  0  0  0  0  0
   11.2640   18.0190   21.0230 O   0  0  0  0  0  0  0  0  0  0  0  0
   14.3050   18.4200   22.7810 Cl  0  0  0  0  0  0  0  0  0  0  0  0
  1  2  1  0  0  0  0
  1  3  1  0  0  0  0
  1  4  1  0  0  0  0
  1  5  1  0  0  0  0
  4  8  1  0  0  0  0
  4 22  1  0  0  0  0
  5  6  1  0  0  0  0
  5  7  1  0  0  0  0
  5  9  1  0  0  0  0
  8 10  1  0  0  0  0
  8 23  2  0  0  0  0
  9 10  1  0  0  0  0
 10 11  1  0  0  0  0
 10 12  1  0  0  0  0
 13 14  2  0  0  0  0
 13 16  1  0  0  0  0
 13 24  1  0  0  0  0
 14 15  1  0  0  0  0
 14 18  1  0  0  0  0
 16 17  1  0  0  0  0
 16 20  2  0  0  0  0
 18 19  1  0  0  0  0
 18 22  2  0  0  0  0
 20 21  1  0  0  0  0
 20 22  1  0  0  0  0
 24 25  1  0  0  0  0
 24 26  1  0  0  0  0
 25 29  1  0  0  0  0
 25 32  2  0  0  0  0
 26 27  1  0  0  0  0
 26 28  1  0  0  0  0
 26 30  1  0  0  0  0
 29 30  1  0  0  0  0
 30 31  1  0  0  0  0
 30 33  1  0  0  0  0
 33 34  1  0  0  0  0
 33 35  1  0  0  0  0
 33 36  1  0  0  0  0
 36 37  1  0  0  0  0
 36 38  1  0  0  0  0
 38 41  1  0  0  0  0
 38 46  2  0  0  0  0
 39 40  1  0  0  0  0
 39 41  1  0  0  0  0
 40 42  2  0  0  0  0
 40 47  1  0  0  0  0
 41 44  2  0  0  0  0
 42 43  1  0  0  0  0
 42 44  1  0  0  0  0
 44 45  1  0  0  0  0
M  END
>  <mseq>
1

>  <S>
-11.45574

>  <E_conf>
0.39437079

>  <E_place>
-122.83402

>  <E_score1>
-11.45574

$$$$

  MOE2010           3D

 47 50  0  0  1  0  0  0  0  0999 V2000
    9.8380   15.0070   17.0380 C   0  0  0  0  0  0  0  0  0  0  0  0
   10.6620   14.0600   17.3030 H   0  0  0  0  0  0  0  0  0  0  0  0
    8.8900   14.8100   17.8570 H   0  0  0  0  0  0  0  0  0  0  0  0
   10.1920   15.7480   16.9660 N   0  0  0  0  0  0  0  0  0  0  0  0
    9.5040   14.6430   16.3760 C   0  0  0  0  0  0  0  0  0  0  0  0
    8.4100   14.2610   16.4670 H   0  0  0  0  0  0  0  0  0  0  0  0
    9.6800   13.5120   16.2050 H   0  0  0  0  0  0  0  0  0  0  0  0
   10.2120   16.1260   16.2320 C   0  0  0  0  0  0  0  0  0  0  0  0
    9.5250   15.0210   15.6440 O   0  0  0  0  0  0  0  0  0  0  0  0
    9.8790   15.7620   15.5710 C   0  0  0  0  0  0  0  0  0  0  0  0
   10.6070   15.7440   14.6540 H   0  0  0  0  0  0  0  0  0  0  0  0
    9.1530   16.4700   14.9870 H   0  0  0  0  0  0  0  0  0  0  0  0
   11.1920   16.8410   18.9490 C   0  0  0  0  0  0  0  0  0  0  0  0
   11.4740   16.1080   18.6950 C   0  0  0  0  0  0  0  0  0  0  0  0
   11.6600   14.9830   19.2460 H   0  0  0  0  0  0  0  0  0  0  0  0
   10.5770   17.2090   18.5410 C   0  0  0  0  0  0  0  0  0  0  0  0
   10.1850   18.3550   18.4920 H   0  0  0  0  0  0  0  0  0  0  0  0
   11.1410   15.7440   18.0350 C   0  0  0  0  0  0  0  0  0  0  0  0
   12.3800   15.5950   17.5320 H   0  0  0  0  0  0  0  0  0  0  0  0
   10.2430   16.8450   17.8800 C   0  0  0  0  0  0  0  0  0  0  0  0
    9.2530   17.5460   17.6780 H   0  0  0  0  0  0  0  0  0  0  0  0
   10.5260   16.1120   17.6270 C   0  0  0  0  0  0  0  0  0  0  0  0
   10.5670   16.8680   16.1610 O   0  0  0  0  0  0  0  0  0  0  0  0
   11.5250   17.2050   19.6090 N   0  0  0  0  0  0  0  0  0  0  0  0
   11.1360   17.7110   20.1320 C   0  0  0  0  0  0  0  0  0  0  0  0
   12.3060   17.1270   19.8650 C   0  0  0  0  0  0  0  0  0  0  0  0
   12.2680   15.8330   20.3260 H   0  0  0  0  0  0  0  0  0  0  0  0
   13.2230   17.3660   18.9140 H   0  0  0  0  0  0  0  0  0  0  0  0
   11.6760   17.9460   20.7090 O   0  0  0  0  0  0  0  0  0  0  0  0
   12.3990   17.5850   20.5440 C   0  0  1  0  0  0  0  0  0  0  0  0
   12.8190   18.7000   19.8880 H   0  0  0  0  0  0  0  0  0  0  0  0
   10.3450   17.9420   20.0850 O   0  0  0  0  0  0  0  0  0  0  0  0
   13.0940   17.6670   20.9820 C   0  0  0  0  0  0  0  0  0  0  0  0
   13.6130   16.5060   20.8360 H   0  0  0  0  0  0  0  0  0  0  0  0
   12.8320   17.3470   22.2240 H   0  0  0  0  0  0  0  0  0  0  0  0
   13.6450   18.2440   20.7750 N   0  0  0  0  0  0  0  0  0  0  0  0
   13.9020   18.2470   19.7050 H   0  0  0  0  0  0  0  0  0  0  0  0
   14.3410   18.3260   21.2130 C   0  0  0  0  0  0  0  0  0  0  0  0
   15.6770   18.7670   20.7880 S   0  0  0  0  0  0  0  0  0  0  0  0
   16.0260   19.4970   20.6270 C   0  0  0  0  0  0  0  0  0  0  0  0
   14.8920   18.9030   21.0050 C   0  0  0  0  0  0  0  0  0  0  0  0
   15.4580   20.0830   20.7450 C   0  0  0  0  0  0  0  0  0  0  0  0
   15.5230   21.2580   20.6400 H   0  0  0  0  0  0  0  0  0  0  0  0
   14.7570   19.7170   20.9790 C   0  0  0  0  0  0  0  0  0  0  0  0
   13.9780   20.5360   21.2700 H   0  0  0  0  0  0  0  0  0  0  0  0
   14.4830   17.8320   21.8570 O   0  0  0  0  0  0  0  0  0  0  0  0
   16.8070   19.6190   20.3890 Cl  0  0  0  0  0  0  0  0  0  0  0  0
  1  2  1  0  0  0  0
  1  3  1  0  0  0  0
  1  4  1  0  0  0  0
  1  5  1  0  0  0  0
  4  8  1  0  0  0  0
  4 22  1  0  0  0  0
  5  6  1  0  0  0  0
  5  7  1  0  0  0  0
  5  9  1  0  0  0  0
  8 10  1  0  0  0  0
  8 23  2  0  0  0  0
  9 10  1  0  0  0  0
 10 11  1  0  0  0  0
 10 12  1  0  0  0  0
 13 14  2  0  0  0  0
 13 16  1  0  0  0  0
 13 24  1  0  0  0  0
 14 15  1  0  0  0  0
 14 18  1  0  0  0  0
 16 17  1  0  0  0  0
 16 20  2  0  0  0  0
 18 19  1  0  0  0  0
 18 22  2  0  0  0  0
 20 21  1  0  0  0  0
 20 22  1  0  0  0  0
 24 25  1  0  0  0  0
 24 26  1  0  0  0  0
 25 29  1  0  0  0  0
 25 32  2  0  0  0  0
 26 27  1  0  0  0  0
 26 28  1  0  0  0  0
 26 30  1  0  0  0  0
 29 30  1  0  0  0  0
 30 31  1  0  0  0  0
 30 33  1  0  0  0  0
 33 34  1  0  0  0  0
 33 35  1  0  0  0  0
 33 36  1  0  0  0  0
 36 37  1  0  0  0  0
 36 38  1  0  0  0  0
 38 41  1  0  0  0  0
 38 46  2  0  0  0  0
 39 40  1  0  0  0  0
 39 41  1  0  0  0  0
 40 42  2  0  0  0  0
 40 47  1  0  0  0  0
 41 44  2  0  0  0  0
 42 43  1  0  0  0  0
 42 44  1  0  0  0  0
 44 45  1  0  0  0  0
M  END
>  <mseq>
1

>  <S>
-11.449858

>  <E_conf>
3.9854767

>  <E_place>
-123.11789

>  <E_score1>
-11.449858

$$$$

  MOE2010           3D

 47 50  0  0  1  0  0  0  0  0999 V2000
   11.4310   17.3310   20.8220 C   0  0  0  0  0  0  0  0  0  0  0  0
   10.1750   17.1850   21.0370 H   0  0  0  0  0  0  0  0  0  0  0  0
   11.8770   16.1440   20.8610 H   0  0  0  0  0  0  0  0  0  0  0  0
   11.6070   17.8310   20.1900 N   0  0  0  0  0  0  0  0  0  0  0  0
   11.6200   17.5570   21.5930 C   0  0  0  0  0  0  0  0  0  0  0  0
   12.2290   16.8070   22.2390 H   0  0  0  0  0  0  0  0  0  0  0  0
   10.8560   17.3690   22.4410 H   0  0  0  0  0  0  0  0  0  0  0  0
   11.9720   18.5580   20.3290 C   0  0  0  0  0  0  0  0  0  0  0  0
   11.9860   18.2840   21.7310 O   0  0  0  0  0  0  0  0  0  0  0  0
   12.1610   18.7840   21.0990 C   0  0  0  0  0  0  0  0  0  0  0  0
   11.7830   19.8610   21.3570 H   0  0  0  0  0  0  0  0  0  0  0  0
   13.2710   19.1440   21.2020 H   0  0  0  0  0  0  0  0  0  0  0  0
   11.0390   17.1530   17.8780 C   0  0  0  0  0  0  0  0  0  0  0  0
   10.5790   16.8890   18.5110 C   0  0  0  0  0  0  0  0  0  0  0  0
   10.1860   15.7570   18.9180 H   0  0  0  0  0  0  0  0  0  0  0  0
   11.6880   17.6430   18.0170 C   0  0  0  0  0  0  0  0  0  0  0  0
   12.3260   18.3940   17.3110 H   0  0  0  0  0  0  0  0  0  0  0  0
   10.7680   17.1150   19.2810 C   0  0  0  0  0  0  0  0  0  0  0  0
    9.4920   17.5100   19.4440 H   0  0  0  0  0  0  0  0  0  0  0  0
   11.8770   17.8690   18.7880 C   0  0  0  0  0  0  0  0  0  0  0  0
   12.9820   18.3870   18.6350 H   0  0  0  0  0  0  0  0  0  0  0  0
   11.4170   17.6050   19.4190 C   0  0  0  0  0  0  0  0  0  0  0  0
   12.1480   19.0580   19.6970 O   0  0  0  0  0  0  0  0  0  0  0  0
   10.8500   16.9270   17.1080 N   0  0  0  0  0  0  0  0  0  0  0  0
   10.8190   16.1530   16.8230 C   0  0  0  0  0  0  0  0  0  0  0  0
   10.6580   17.4340   16.4870 C   0  0  0  0  0  0  0  0  0  0  0  0
    9.4150   17.8460   16.9030 H   0  0  0  0  0  0  0  0  0  0  0  0
   11.5470   18.4200   16.2850 H   0  0  0  0  0  0  0  0  0  0  0  0
   10.6090   16.1830   16.0270 O   0  0  0  0  0  0  0  0  0  0  0  0
   10.5090   16.9750   15.8190 C   0  0  1  0  0  0  0  0  0  0  0  0
   11.7840   17.0230   15.3450 H   0  0  0  0  0  0  0  0  0  0  0  0
   10.9720   15.4700   17.2590 O   0  0  0  0  0  0  0  0  0  0  0  0
   10.2980   17.2580   15.0730 C   0  0  0  0  0  0  0  0  0  0  0  0
    9.6070   18.2880   15.3900 H   0  0  0  0  0  0  0  0  0  0  0  0
    9.1820   16.6730   14.7180 H   0  0  0  0  0  0  0  0  0  0  0  0
   10.8820   17.4730   14.5330 N   0  0  0  0  0  0  0  0  0  0  0  0
   11.7400   16.7850   14.5110 H   0  0  0  0  0  0  0  0  0  0  0  0
   11.1650   18.2480   14.5170 C   0  0  0  0  0  0  0  0  0  0  0  0
   11.6880   18.4190   13.1540 S   0  0  0  0  0  0  0  0  0  0  0  0
   12.3980   18.6880   12.8310 C   0  0  0  0  0  0  0  0  0  0  0  0
   11.7490   18.4630   13.9770 C   0  0  0  0  0  0  0  0  0  0  0  0
   12.8970   18.8990   13.4540 C   0  0  0  0  0  0  0  0  0  0  0  0
   14.0010   19.3200   13.4530 H   0  0  0  0  0  0  0  0  0  0  0  0
   12.4970   18.7600   14.1610 C   0  0  0  0  0  0  0  0  0  0  0  0
   13.2300   18.9340   15.0530 H   0  0  0  0  0  0  0  0  0  0  0  0
   10.8640   18.8080   15.0430 O   0  0  0  0  0  0  0  0  0  0  0  0
   12.5770   18.7380   12.0280 Cl  0  0  0  0  0  0  0  0  0  0  0  0
  1  2  1  0  0  0  0
  1  3  1  0  0  0  0
  1  4  1  0  0  0  0
  1  5  1  0  0  0  0
  4  8  1  0  0  0  0
  4 22  1  0  0  0  0
  5  6  1  0  0  0  0
  5  7  1  0  0  0  0
  5  9  1  0  0  0  0
  8 10  1  0  0  0  0
  8 23  2  0  0  0  0
  9 10  1  0  0  0  0
 10 11  1  0  0  0  0
 10 12  1  0  0  0  0
 13 14  2  0  0  0  0
 13 16  1  0  0  0  0
 13 24  1  0  0  0  0
 14 15  1  0  0  0  0
 14 18  1  0  0  0  0
 16 17  1  0  0  0  0
 16 20  2  0  0  0  0
 18 19  1  0  0  0  0
 18 22  2  0  0  0  0
 20 21  1  0  0  0  0
 20 22  1  0  0  0  0
 24 25  1  0  0  0  0
 24 26  1  0  0  0  0
 25 29  1  0  0  0  0
 25 32  2  0  0  0  0
 26 27  1  0  0  0  0
 26 28  1  0  0  0  0
 26 30  1  0  0  0  0
 29 30  1  0  0  0  0
 30 31  1  0  0  0  0
 30 33  1  0  0  0  0
 33 34  1  0  0  0  0
 33 35  1  0  0  0  0
 33 36  1  0  0  0  0
 36 37  1  0  0  0  0
 36 38  1  0  0  0  0
 38 41  1  0  0  0  0
 38 46  2  0  0  0  0
 39 40  1  0  0  0  0
 39 41  1  0  0  0  0
 40 42  2  0  0  0  0
 40 47  1  0  0  0  0
 41 44  2  0  0  0  0
 42 43  1  0  0  0  0
 42 44  1  0  0  0  0
 44 45  1  0  0  0  0
M  END
>  <mseq>
1

>  <S>
-11.441597

>  <E_conf>
3.035053

>  <E_place>
-133.49446

>  <E_score1>
-11.441597

$$$$

  MOE2010           3D

 47 50  0  0  1  0  0  0  0  0999 V2000
   11.7200   17.2980   14.6340 C   0  0  0  0  0  0  0  0  0  0  0  0
   11.1140   18.4280   14.6660 H   0  0  0  0  0  0  0  0  0  0  0  0
   12.9170   17.5960   14.9290 H   0  0  0  0  0  0  0  0  0  0  0  0
   11.3220   16.6930   15.0280 N   0  0  0  0  0  0  0  0  0  0  0  0
   11.8010   17.2720   13.8130 C   0  0  0  0  0  0  0  0  0  0  0  0
   12.8690   17.4000   13.3730 H   0  0  0  0  0  0  0  0  0  0  0  0
   11.6410   18.2390   13.1970 H   0  0  0  0  0  0  0  0  0  0  0  0
   11.0040   16.0620   14.6020 C   0  0  0  0  0  0  0  0  0  0  0  0
   11.4830   16.6400   13.3870 O   0  0  0  0  0  0  0  0  0  0  0  0
   11.0850   16.0350   13.7820 C   0  0  0  0  0  0  0  0  0  0  0  0
   10.0680   15.8370   13.2370 H   0  0  0  0  0  0  0  0  0  0  0  0
   11.4940   15.0060   13.4040 H   0  0  0  0  0  0  0  0  0  0  0  0
   11.0790   16.7720   17.4900 C   0  0  0  0  0  0  0  0  0  0  0  0
   10.7620   16.1410   17.0640 C   0  0  0  0  0  0  0  0  0  0  0  0
    9.6200   15.5980   16.9890 H   0  0  0  0  0  0  0  0  0  0  0  0
   11.4770   17.3770   17.0960 C   0  0  0  0  0  0  0  0  0  0  0  0
   12.2700   18.2210   17.4550 H   0  0  0  0  0  0  0  0  0  0  0  0
   10.8420   16.1140   16.2440 C   0  0  0  0  0  0  0  0  0  0  0  0
   11.3230   14.8640   16.3640 H   0  0  0  0  0  0  0  0  0  0  0  0
   11.5580   17.3510   16.2750 C   0  0  0  0  0  0  0  0  0  0  0  0
   11.9880   18.4760   16.0270 H   0  0  0  0  0  0  0  0  0  0  0  0
   11.2410   16.7190   15.8490 C   0  0  0  0  0  0  0  0  0  0  0  0
   10.6050   15.4570   14.9980 O   0  0  0  0  0  0  0  0  0  0  0  0
   10.9980   16.7990   18.3100 N   0  0  0  0  0  0  0  0  0  0  0  0
   10.6160   16.2370   18.7790 C   0  0  0  0  0  0  0  0  0  0  0  0
   11.2850   17.3910   18.8080 C   0  0  0  0  0  0  0  0  0  0  0  0
   12.6310   17.1230   18.7310 H   0  0  0  0  0  0  0  0  0  0  0  0
   10.9310   18.6340   18.4460 H   0  0  0  0  0  0  0  0  0  0  0  0
   10.6670   16.4820   19.5640 O   0  0  0  0  0  0  0  0  0  0  0  0
   11.0800   17.1960   19.5820 C   0  0  1  0  0  0  0  0  0  0  0  0
    9.9090   17.8880   19.5820 H   0  0  0  0  0  0  0  0  0  0  0  0
   10.2480   15.5500   18.5080 O   0  0  0  0  0  0  0  0  0  0  0  0
   11.2580   17.6370   20.2570 C   0  0  0  0  0  0  0  0  0  0  0  0
   11.2750   16.7200   21.1500 H   0  0  0  0  0  0  0  0  0  0  0  0
   10.1320   18.0590   20.7740 H   0  0  0  0  0  0  0  0  0  0  0  0
   11.9580   18.0700   20.2930 N   0  0  0  0  0  0  0  0  0  0  0  0
   12.2080   18.5880   19.3550 H   0  0  0  0  0  0  0  0  0  0  0  0
   12.6440   17.7230   20.5930 C   0  0  0  0  0  0  0  0  0  0  0  0
   13.4030   18.9750   20.7300 S   0  0  0  0  0  0  0  0  0  0  0  0
   14.2030   19.1740   20.7340 C   0  0  0  0  0  0  0  0  0  0  0  0
   13.3440   18.1570   20.6290 C   0  0  0  0  0  0  0  0  0  0  0  0
   14.6390   18.4800   20.6370 C   0  0  0  0  0  0  0  0  0  0  0  0
   15.8050   18.3010   20.5760 H   0  0  0  0  0  0  0  0  0  0  0  0
   14.1090   17.8520   20.5720 C   0  0  0  0  0  0  0  0  0  0  0  0
   14.7010   16.8810   20.3100 H   0  0  0  0  0  0  0  0  0  0  0  0
   12.6300   16.9410   20.8560 O   0  0  0  0  0  0  0  0  0  0  0  0
   14.5130   19.9340   20.8210 Cl  0  0  0  0  0  0  0  0  0  0  0  0
  1  2  1  0  0  0  0
  1  3  1  0  0  0  0
  1  4  1  0  0  0  0
  1  5  1  0  0  0  0
  4  8  1  0  0  0  0
  4 22  1  0  0  0  0
  5  6  1  0  0  0  0
  5  7  1  0  0  0  0
  5  9  1  0  0  0  0
  8 10  1  0  0  0  0
  8 23  2  0  0  0  0
  9 10  1  0  0  0  0
 10 11  1  0  0  0  0
 10 12  1  0  0  0  0
 13 14  2  0  0  0  0
 13 16  1  0  0  0  0
 13 24  1  0  0  0  0
 14 15  1  0  0  0  0
 14 18  1  0  0  0  0
 16 17  1  0  0  0  0
 16 20  2  0  0  0  0
 18 19  1  0  0  0  0
 18 22  2  0  0  0  0
 20 21  1  0  0  0  0
 20 22  1  0  0  0  0
 24 25  1  0  0  0  0
 24 26  1  0  0  0  0
 25 29  1  0  0  0  0
 25 32  2  0  0  0  0
 26 27  1  0  0  0  0
 26 28  1  0  0  0  0
 26 30  1  0  0  0  0
 29 30  1  0  0  0  0
 30 31  1  0  0  0  0
 30 33  1  0  0  0  0
 33 34  1  0  0  0  0
 33 35  1  0  0  0  0
 33 36  1  0  0  0  0
 36 37  1  0  0  0  0
 36 38  1  0  0  0  0
 38 41  1  0  0  0  0
 38 46  2  0  0  0  0
 39 40  1  0  0  0  0
 39 41  1  0  0  0  0
 40 42  2  0  0  0  0
 40 47  1  0  0  0  0
 41 44  2  0  0  0  0
 42 43  1  0  0  0  0
 42 44  1  0  0  0  0
 44 45  1  0  0  0  0
M  END
>  <mseq>
1

>  <S>
-11.418637

>  <E_conf>
0

>  <E_place>
-141.73509

>  <E_score1>
-11.418637

$$$$

  MOE2010           3D

 47 50  0  0  1  0  0  0  0  0999 V2000
   13.8180   19.0720   12.9940 C   0  0  0  0  0  0  0  0  0  0  0  0
   14.4270   19.3210   14.0950 H   0  0  0  0  0  0  0  0  0  0  0  0
   14.4110   18.0400   12.5560 H   0  0  0  0  0  0  0  0  0  0  0  0
   12.9950   19.0980   13.0530 N   0  0  0  0  0  0  0  0  0  0  0  0
   14.2180   19.6410   12.5490 C   0  0  0  0  0  0  0  0  0  0  0  0
   14.9710   19.2640   11.7480 H   0  0  0  0  0  0  0  0  0  0  0  0
   15.1920   20.1050   12.9680 H   0  0  0  0  0  0  0  0  0  0  0  0
   12.5730   19.6930   12.6670 C   0  0  0  0  0  0  0  0  0  0  0  0
   13.7950   20.2340   12.1630 O   0  0  0  0  0  0  0  0  0  0  0  0
   12.9720   20.2600   12.2220 C   0  0  0  0  0  0  0  0  0  0  0  0
   12.6490   21.3520   12.4930 H   0  0  0  0  0  0  0  0  0  0  0  0
   12.5220   20.3880   11.1490 H   0  0  0  0  0  0  0  0  0  0  0  0
   11.7960   17.3940   14.3890 C   0  0  0  0  0  0  0  0  0  0  0  0
   12.3540   17.8830   14.7490 C   0  0  0  0  0  0  0  0  0  0  0  0
   13.3820   17.6900   15.4630 H   0  0  0  0  0  0  0  0  0  0  0  0
   11.6370   17.4740   13.5830 C   0  0  0  0  0  0  0  0  0  0  0  0
   10.7070   17.1330   12.8840 H   0  0  0  0  0  0  0  0  0  0  0  0
   12.7540   18.4510   14.3040 C   0  0  0  0  0  0  0  0  0  0  0  0
   12.4060   19.3690   15.2240 H   0  0  0  0  0  0  0  0  0  0  0  0
   12.0370   18.0420   13.1380 C   0  0  0  0  0  0  0  0  0  0  0  0
   11.7220   17.7320   11.9900 H   0  0  0  0  0  0  0  0  0  0  0  0
   12.5950   18.5300   13.4990 C   0  0  0  0  0  0  0  0  0  0  0  0
   11.7500   19.7180   12.7260 O   0  0  0  0  0  0  0  0  0  0  0  0
   11.3960   16.8270   14.8340 N   0  0  0  0  0  0  0  0  0  0  0  0
   11.1100   16.1050   14.5540 C   0  0  0  0  0  0  0  0  0  0  0  0
   11.2110   16.8790   15.6360 C   0  0  0  0  0  0  0  0  0  0  0  0
   12.4690   16.7270   16.1700 H   0  0  0  0  0  0  0  0  0  0  0  0
   10.5790   18.0120   15.9830 H   0  0  0  0  0  0  0  0  0  0  0  0
   10.7490   15.7130   15.1840 O   0  0  0  0  0  0  0  0  0  0  0  0
   10.8120   16.1920   15.8520 C   0  0  1  0  0  0  0  0  0  0  0  0
    9.5670   16.6920   15.6250 H   0  0  0  0  0  0  0  0  0  0  0  0
   11.1740   15.8240   13.7810 O   0  0  0  0  0  0  0  0  0  0  0  0
   10.5250   16.0140   16.6050 C   0  0  0  0  0  0  0  0  0  0  0  0
   10.5420   14.7340   16.5760 H   0  0  0  0  0  0  0  0  0  0  0  0
    9.2190   15.9550   16.5390 H   0  0  0  0  0  0  0  0  0  0  0  0
   10.9280   16.2800   17.2730 N   0  0  0  0  0  0  0  0  0  0  0  0
   12.0090   16.0720   17.2500 H   0  0  0  0  0  0  0  0  0  0  0  0
   10.6420   16.1020   18.0270 C   0  0  0  0  0  0  0  0  0  0  0  0
   10.7400   16.8660   19.2790 S   0  0  0  0  0  0  0  0  0  0  0  0
   11.3310   16.9900   19.8410 C   0  0  0  0  0  0  0  0  0  0  0  0
   11.0450   16.3680   18.6950 C   0  0  0  0  0  0  0  0  0  0  0  0
   12.0000   16.5690   19.6050 C   0  0  0  0  0  0  0  0  0  0  0  0
   13.0670   16.4690   20.1020 H   0  0  0  0  0  0  0  0  0  0  0  0
   11.8240   16.1850   18.8970 C   0  0  0  0  0  0  0  0  0  0  0  0
   12.7950   15.6850   18.4840 H   0  0  0  0  0  0  0  0  0  0  0  0
    9.9520   15.6580   18.1110 O   0  0  0  0  0  0  0  0  0  0  0  0
   11.2640   17.4530   20.5210 Cl  0  0  0  0  0  0  0  0  0  0  0  0
  1  2  1  0  0  0  0
  1  3  1  0  0  0  0
  1  4  1  0  0  0  0
  1  5  1  0  0  0  0
  4  8  1  0  0  0  0
  4 22  1  0  0  0  0
  5  6  1  0  0  0  0
  5  7  1  0  0  0  0
  5  9  1  0  0  0  0
  8 10  1  0  0  0  0
  8 23  2  0  0  0  0
  9 10  1  0  0  0  0
 10 11  1  0  0  0  0
 10 12  1  0  0  0  0
 13 14  2  0  0  0  0
 13 16  1  0  0  0  0
 13 24  1  0  0  0  0
 14 15  1  0  0  0  0
 14 18  1  0  0  0  0
 16 17  1  0  0  0  0
 16 20  2  0  0  0  0
 18 19  1  0  0  0  0
 18 22  2  0  0  0  0
 20 21  1  0  0  0  0
 20 22  1  0  0  0  0
 24 25  1  0  0  0  0
 24 26  1  0  0  0  0
 25 29  1  0  0  0  0
 25 32  2  0  0  0  0
 26 27  1  0  0  0  0
 26 28  1  0  0  0  0
 26 30  1  0  0  0  0
 29 30  1  0  0  0  0
 30 31  1  0  0  0  0
 30 33  1  0  0  0  0
 33 34  1  0  0  0  0
 33 35  1  0  0  0  0
 33 36  1  0  0  0  0
 36 37  1  0  0  0  0
 36 38  1  0  0  0  0
 38 41  1  0  0  0  0
 38 46  2  0  0  0  0
 39 40  1  0  0  0  0
 39 41  1  0  0  0  0
 40 42  2  0  0  0  0
 40 47  1  0  0  0  0
 41 44  2  0  0  0  0
 42 43  1  0  0  0  0
 42 44  1  0  0  0  0
 44 45  1  0  0  0  0
M  END
>  <mseq>
1

>  <S>
-11.405658

>  <E_conf>
3.3854766

>  <E_place>
-131.62242

>  <E_score1>
-11.405658

$$$$

  MOE2010           3D

 47 50  0  0  1  0  0  0  0  0999 V2000
   13.5280   18.8100   22.0590 C   0  0  0  0  0  0  0  0  0  0  0  0
   12.6260   19.7210   22.0510 H   0  0  0  0  0  0  0  0  0  0  0  0
   13.0420   17.9210   22.8240 H   0  0  0  0  0  0  0  0  0  0  0  0
   13.8160   18.6160   21.3110 N   0  0  0  0  0  0  0  0  0  0  0  0
   14.0190   19.1850   22.6060 C   0  0  0  0  0  0  0  0  0  0  0  0
   14.1050   18.7130   23.6650 H   0  0  0  0  0  0  0  0  0  0  0  0
   13.5970   20.0570   23.2400 H   0  0  0  0  0  0  0  0  0  0  0  0
   14.5950   18.7980   21.1090 C   0  0  0  0  0  0  0  0  0  0  0  0
   14.7980   19.3670   22.4030 O   0  0  0  0  0  0  0  0  0  0  0  0
   15.0850   19.1740   21.6550 C   0  0  0  0  0  0  0  0  0  0  0  0
   15.6230   20.1110   21.2060 H   0  0  0  0  0  0  0  0  0  0  0  0
   16.1170   18.6340   21.7770 H   0  0  0  0  0  0  0  0  0  0  0  0
   12.3430   17.4900   19.6710 C   0  0  0  0  0  0  0  0  0  0  0  0
   12.6710   18.2260   19.4940 C   0  0  0  0  0  0  0  0  0  0  0  0
   12.2090   19.3410   19.1120 H   0  0  0  0  0  0  0  0  0  0  0  0
   12.5050   17.1300   20.3950 C   0  0  0  0  0  0  0  0  0  0  0  0
   12.4260   15.9860   20.7890 H   0  0  0  0  0  0  0  0  0  0  0  0
   13.1620   18.6010   20.0400 C   0  0  0  0  0  0  0  0  0  0  0  0
   14.0750   18.7550   19.0650 H   0  0  0  0  0  0  0  0  0  0  0  0
   12.9960   17.5050   20.9420 C   0  0  0  0  0  0  0  0  0  0  0  0
   12.8370   16.8110   21.9440 H   0  0  0  0  0  0  0  0  0  0  0  0
   13.3240   18.2410   20.7640 C   0  0  0  0  0  0  0  0  0  0  0  0
   14.8820   18.6050   20.3600 O   0  0  0  0  0  0  0  0  0  0  0  0
   11.8520   17.1150   19.1250 N   0  0  0  0  0  0  0  0  0  0  0  0
   11.3640   17.4880   18.5740 C   0  0  0  0  0  0  0  0  0  0  0  0
   11.7610   16.3000   19.0330 C   0  0  0  0  0  0  0  0  0  0  0  0
   12.9790   15.9960   18.4740 H   0  0  0  0  0  0  0  0  0  0  0  0
   11.4770   15.6450   20.1700 H   0  0  0  0  0  0  0  0  0  0  0  0
   10.9730   16.9040   18.1420 O   0  0  0  0  0  0  0  0  0  0  0  0
   11.2190   16.1700   18.4260 C   0  0  1  0  0  0  0  0  0  0  0  0
   10.1300   16.1080   19.2400 H   0  0  0  0  0  0  0  0  0  0  0  0
   11.2830   18.3030   18.4720 O   0  0  0  0  0  0  0  0  0  0  0  0
   10.9660   15.4340   18.1510 C   0  0  0  0  0  0  0  0  0  0  0  0
   12.0270   14.7360   18.3110 H   0  0  0  0  0  0  0  0  0  0  0  0
   11.1810   15.3870   16.8610 H   0  0  0  0  0  0  0  0  0  0  0  0
   10.3290   15.0550   18.5130 N   0  0  0  0  0  0  0  0  0  0  0  0
   10.4050   15.0140   19.6100 H   0  0  0  0  0  0  0  0  0  0  0  0
   10.0760   14.3190   18.2370 C   0  0  0  0  0  0  0  0  0  0  0  0
    9.3290   13.1240   18.6550 S   0  0  0  0  0  0  0  0  0  0  0  0
    8.6230   12.9900   19.0600 C   0  0  0  0  0  0  0  0  0  0  0  0
    9.4400   13.9410   18.6000 C   0  0  0  0  0  0  0  0  0  0  0  0
    8.2970   13.7230   19.2550 C   0  0  0  0  0  0  0  0  0  0  0  0
    7.2990   14.0010   19.8230 H   0  0  0  0  0  0  0  0  0  0  0  0
    8.8020   14.3100   18.9710 C   0  0  0  0  0  0  0  0  0  0  0  0
    8.2990   15.3520   19.1280 H   0  0  0  0  0  0  0  0  0  0  0  0
   10.4600   13.9630   17.6010 O   0  0  0  0  0  0  0  0  0  0  0  0
    8.2980   12.2530   19.2380 Cl  0  0  0  0  0  0  0  0  0  0  0  0
  1  2  1  0  0  0  0
  1  3  1  0  0  0  0
  1  4  1  0  0  0  0
  1  5  1  0  0  0  0
  4  8  1  0  0  0  0
  4 22  1  0  0  0  0
  5  6  1  0  0  0  0
  5  7  1  0  0  0  0
  5  9  1  0  0  0  0
  8 10  1  0  0  0  0
  8 23  2  0  0  0  0
  9 10  1  0  0  0  0
 10 11  1  0  0  0  0
 10 12  1  0  0  0  0
 13 14  2  0  0  0  0
 13 16  1  0  0  0  0
 13 24  1  0  0  0  0
 14 15  1  0  0  0  0
 14 18  1  0  0  0  0
 16 17  1  0  0  0  0
 16 20  2  0  0  0  0
 18 19  1  0  0  0  0
 18 22  2  0  0  0  0
 20 21  1  0  0  0  0
 20 22  1  0  0  0  0
 24 25  1  0  0  0  0
 24 26  1  0  0  0  0
 25 29  1  0  0  0  0
 25 32  2  0  0  0  0
 26 27  1  0  0  0  0
 26 28  1  0  0  0  0
 26 30  1  0  0  0  0
 29 30  1  0  0  0  0
 30 31  1  0  0  0  0
 30 33  1  0  0  0  0
 33 34  1  0  0  0  0
 33 35  1  0  0  0  0
 33 36  1  0  0  0  0
 36 37  1  0  0  0  0
 36 38  1  0  0  0  0
 38 41  1  0  0  0  0
 38 46  2  0  0  0  0
 39 40  1  0  0  0  0
 39 41  1  0  0  0  0
 40 42  2  0  0  0  0
 40 47  1  0  0  0  0
 41 44  2  0  0  0  0
 42 43  1  0  0  0  0
 42 44  1  0  0  0  0
 44 45  1  0  0  0  0
M  END
>  <mseq>
1

>  <S>
-11.370217

>  <E_conf>
3.3854833

>  <E_place>
-119.05753

>  <E_score1>
-11.370217

$$$$

  MOE2010           3D

 47 50  0  0  1  0  0  0  0  0999 V2000
   11.2030   17.1990   15.4320 C   0  0  0  0  0  0  0  0  0  0  0  0
   10.4130   18.1870   15.2170 H   0  0  0  0  0  0  0  0  0  0  0  0
   12.3560   17.7250   15.3670 H   0  0  0  0  0  0  0  0  0  0  0  0
   10.9850   16.7290   16.0740 N   0  0  0  0  0  0  0  0  0  0  0  0
   11.1650   16.8950   14.6660 C   0  0  0  0  0  0  0  0  0  0  0  0
   12.1150   16.9870   14.0020 H   0  0  0  0  0  0  0  0  0  0  0  0
   10.7420   17.5560   13.8150 H   0  0  0  0  0  0  0  0  0  0  0  0
   10.7280   15.9550   15.9500 C   0  0  0  0  0  0  0  0  0  0  0  0
   10.9080   16.1210   14.5430 O   0  0  0  0  0  0  0  0  0  0  0  0
   10.6900   15.6510   15.1850 C   0  0  0  0  0  0  0  0  0  0  0  0
    9.6570   15.1510   14.9510 H   0  0  0  0  0  0  0  0  0  0  0  0
   11.2200   14.6110   15.0870 H   0  0  0  0  0  0  0  0  0  0  0  0
   11.0990   17.6420   18.3720 C   0  0  0  0  0  0  0  0  0  0  0  0
   10.9490   18.1450   17.7350 C   0  0  0  0  0  0  0  0  0  0  0  0
   11.4630   19.2190   17.3040 H   0  0  0  0  0  0  0  0  0  0  0  0
   11.2110   16.8350   18.2430 C   0  0  0  0  0  0  0  0  0  0  0  0
   11.1440   15.8630   18.9630 H   0  0  0  0  0  0  0  0  0  0  0  0
   10.9110   17.8410   16.9700 C   0  0  0  0  0  0  0  0  0  0  0  0
    9.7260   18.4600   16.8180 H   0  0  0  0  0  0  0  0  0  0  0  0
   11.1730   16.5310   17.4770 C   0  0  0  0  0  0  0  0  0  0  0  0
   11.5920   15.3860   17.6380 H   0  0  0  0  0  0  0  0  0  0  0  0
   11.0230   17.0340   16.8400 C   0  0  0  0  0  0  0  0  0  0  0  0
   10.5100   15.4850   16.5930 O   0  0  0  0  0  0  0  0  0  0  0  0
   11.1370   17.9460   19.1370 N   0  0  0  0  0  0  0  0  0  0  0  0
   11.0380   18.7370   19.3510 C   0  0  0  0  0  0  0  0  0  0  0  0
   11.2820   17.5140   19.8250 C   0  0  0  0  0  0  0  0  0  0  0  0
   10.0920   16.8330   19.9210 H   0  0  0  0  0  0  0  0  0  0  0  0
   12.3780   16.7400   19.7700 H   0  0  0  0  0  0  0  0  0  0  0  0
   11.1210   18.7920   20.1700 O   0  0  0  0  0  0  0  0  0  0  0  0
   11.2720   18.0370   20.4620 C   0  0  1  0  0  0  0  0  0  0  0  0
   12.6100   18.2840   20.4450 H   0  0  0  0  0  0  0  0  0  0  0  0
   10.8820   19.3620   18.8360 O   0  0  0  0  0  0  0  0  0  0  0  0
   11.3910   17.8380   21.2540 C   0  0  0  0  0  0  0  0  0  0  0  0
   10.8750   16.6670   21.2920 H   0  0  0  0  0  0  0  0  0  0  0  0
   10.3620   18.2670   21.9410 H   0  0  0  0  0  0  0  0  0  0  0  0
   12.1550   17.8120   21.5620 N   0  0  0  0  0  0  0  0  0  0  0  0
   12.3320   16.9620   22.2390 H   0  0  0  0  0  0  0  0  0  0  0  0
   12.4890   18.4890   21.8970 C   0  0  0  0  0  0  0  0  0  0  0  0
   13.4670   18.6190   22.9870 S   0  0  0  0  0  0  0  0  0  0  0  0
   14.2840   18.5280   23.0510 C   0  0  0  0  0  0  0  0  0  0  0  0
   13.2530   18.4630   22.2050 C   0  0  0  0  0  0  0  0  0  0  0  0
   14.5760   18.3160   22.3090 C   0  0  0  0  0  0  0  0  0  0  0  0
   15.6780   18.0960   21.9440 H   0  0  0  0  0  0  0  0  0  0  0  0
   13.9390   18.2750   21.7870 C   0  0  0  0  0  0  0  0  0  0  0  0
   14.3460   18.0980   20.7060 H   0  0  0  0  0  0  0  0  0  0  0  0
   12.0570   19.1910   21.9240 O   0  0  0  0  0  0  0  0  0  0  0  0
   14.7310   18.6320   23.7370 Cl  0  0  0  0  0  0  0  0  0  0  0  0
  1  2  1  0  0  0  0
  1  3  1  0  0  0  0
  1  4  1  0  0  0  0
  1  5  1  0  0  0  0
  4  8  1  0  0  0  0
  4 22  1  0  0  0  0
  5  6  1  0  0  0  0
  5  7  1  0  0  0  0
  5  9  1  0  0  0  0
  8 10  1  0  0  0  0
  8 23  2  0  0  0  0
  9 10  1  0  0  0  0
 10 11  1  0  0  0  0
 10 12  1  0  0  0  0
 13 14  2  0  0  0  0
 13 16  1  0  0  0  0
 13 24  1  0  0  0  0
 14 15  1  0  0  0  0
 14 18  1  0  0  0  0
 16 17  1  0  0  0  0
 16 20  2  0  0  0  0
 18 19  1  0  0  0  0
 18 22  2  0  0  0  0
 20 21  1  0  0  0  0
 20 22  1  0  0  0  0
 24 25  1  0  0  0  0
 24 26  1  0  0  0  0
 25 29  1  0  0  0  0
 25 32  2  0  0  0  0
 26 27  1  0  0  0  0
 26 28  1  0  0  0  0
 26 30  1  0  0  0  0
 29 30  1  0  0  0  0
 30 31  1  0  0  0  0
 30 33  1  0  0  0  0
 33 34  1  0  0  0  0
 33 35  1  0  0  0  0
 33 36  1  0  0  0  0
 36 37  1  0  0  0  0
 36 38  1  0  0  0  0
 38 41  1  0  0  0  0
 38 46  2  0  0  0  0
 39 40  1  0  0  0  0
 39 41  1  0  0  0  0
 40 42  2  0  0  0  0
 40 47  1  0  0  0  0
 41 44  2  0  0  0  0
 42 43  1  0  0  0  0
 42 44  1  0  0  0  0
 44 45  1  0  0  0  0
M  END
>  <mseq>
1

>  <S>
-11.342056

>  <E_conf>
1.3959801

>  <E_place>
-118.87365

>  <E_score1>
-11.342056

$$$$

  MOE2010           3D

 47 50  0  0  1  0  0  0  0  0999 V2000
   10.8990   15.6460   14.9650 C   0  0  0  0  0  0  0  0  0  0  0  0
   10.4510   16.7770   14.5600 H   0  0  0  0  0  0  0  0  0  0  0  0
   12.1550   15.8210   14.9990 H   0  0  0  0  0  0  0  0  0  0  0  0
   10.4940   15.3380   15.6140 N   0  0  0  0  0  0  0  0  0  0  0  0
   10.8490   15.2700   14.2310 C   0  0  0  0  0  0  0  0  0  0  0  0
   11.8450   15.0140   13.6890 H   0  0  0  0  0  0  0  0  0  0  0  0
   10.7180   15.9110   13.2760 H   0  0  0  0  0  0  0  0  0  0  0  0
   10.0390   14.6550   15.5300 C   0  0  0  0  0  0  0  0  0  0  0  0
   10.3940   14.5880   14.1480 O   0  0  0  0  0  0  0  0  0  0  0  0
    9.9880   14.2800   14.7970 C   0  0  0  0  0  0  0  0  0  0  0  0
    8.8830   14.0590   14.4800 H   0  0  0  0  0  0  0  0  0  0  0  0
   10.2040   13.1310   14.8650 H   0  0  0  0  0  0  0  0  0  0  0  0
   10.6440   16.4640   17.8130 C   0  0  0  0  0  0  0  0  0  0  0  0
    9.9620   16.0470   17.6080 C   0  0  0  0  0  0  0  0  0  0  0  0
    8.7260   16.3170   17.5770 H   0  0  0  0  0  0  0  0  0  0  0  0
   11.2760   16.5050   17.2850 C   0  0  0  0  0  0  0  0  0  0  0  0
   12.4530   16.7640   17.4170 H   0  0  0  0  0  0  0  0  0  0  0  0
    9.9120   15.6720   16.8760 C   0  0  0  0  0  0  0  0  0  0  0  0
    9.5510   14.5440   17.5140 H   0  0  0  0  0  0  0  0  0  0  0  0
   11.2260   16.1300   16.5510 C   0  0  0  0  0  0  0  0  0  0  0  0
   12.2140   16.5760   15.9710 H   0  0  0  0  0  0  0  0  0  0  0  0
   10.5440   15.7130   16.3470 C   0  0  0  0  0  0  0  0  0  0  0  0
    9.6330   14.3480   16.1800 O   0  0  0  0  0  0  0  0  0  0  0  0
   10.6950   16.8390   18.5460 N   0  0  0  0  0  0  0  0  0  0  0  0
   10.1100   16.8450   19.1290 C   0  0  0  0  0  0  0  0  0  0  0  0
   11.3370   17.2730   18.8260 C   0  0  0  0  0  0  0  0  0  0  0  0
   12.2270   16.2490   19.0450 H   0  0  0  0  0  0  0  0  0  0  0  0
   11.7650   18.2290   17.9860 H   0  0  0  0  0  0  0  0  0  0  0  0
   10.3920   17.2840   19.7670 O   0  0  0  0  0  0  0  0  0  0  0  0
   11.1500   17.5480   19.5800 C   0  0  1  0  0  0  0  0  0  0  0  0
   10.6440   18.7390   19.1590 H   0  0  0  0  0  0  0  0  0  0  0  0
    9.3730   16.4780   19.0800 O   0  0  0  0  0  0  0  0  0  0  0  0
   11.6370   18.0070   20.0630 C   0  0  0  0  0  0  0  0  0  0  0  0
   11.2040   17.6840   21.2240 H   0  0  0  0  0  0  0  0  0  0  0  0
   11.0660   19.1740   20.2230 H   0  0  0  0  0  0  0  0  0  0  0  0
   12.4550   17.9090   20.0370 N   0  0  0  0  0  0  0  0  0  0  0  0
   12.7770   16.8590   20.1100 H   0  0  0  0  0  0  0  0  0  0  0  0
   12.9420   18.3690   20.5200 C   0  0  0  0  0  0  0  0  0  0  0  0
   14.2430   18.0490   21.1260 S   0  0  0  0  0  0  0  0  0  0  0  0
   15.0210   18.0170   20.8540 C   0  0  0  0  0  0  0  0  0  0  0  0
   13.7600   18.2700   20.4930 C   0  0  0  0  0  0  0  0  0  0  0  0
   15.0190   18.2180   20.0530 C   0  0  0  0  0  0  0  0  0  0  0  0
   15.9040   18.3080   19.2750 H   0  0  0  0  0  0  0  0  0  0  0  0
   14.2410   18.3740   19.8310 C   0  0  0  0  0  0  0  0  0  0  0  0
   14.2330   18.7800   18.7360 H   0  0  0  0  0  0  0  0  0  0  0  0
   12.6100   18.9260   21.0290 O   0  0  0  0  0  0  0  0  0  0  0  0
   15.6840   17.8180   21.3020 Cl  0  0  0  0  0  0  0  0  0  0  0  0
  1  2  1  0  0  0  0
  1  3  1  0  0  0  0
  1  4  1  0  0  0  0
  1  5  1  0  0  0  0
  4  8  1  0  0  0  0
  4 22  1  0  0  0  0
  5  6  1  0  0  0  0
  5  7  1  0  0  0  0
  5  9  1  0  0  0  0
  8 10  1  0  0  0  0
  8 23  2  0  0  0  0
  9 10  1  0  0  0  0
 10 11  1  0  0  0  0
 10 12  1  0  0  0  0
 13 14  2  0  0  0  0
 13 16  1  0  0  0  0
 13 24  1  0  0  0  0
 14 15  1  0  0  0  0
 14 18  1  0  0  0  0
 16 17  1  0  0  0  0
 16 20  2  0  0  0  0
 18 19  1  0  0  0  0
 18 22  2  0  0  0  0
 20 21  1  0  0  0  0
 20 22  1  0  0  0  0
 24 25  1  0  0  0  0
 24 26  1  0  0  0  0
 25 29  1  0  0  0  0
 25 32  2  0  0  0  0
 26 27  1  0  0  0  0
 26 28  1  0  0  0  0
 26 30  1  0  0  0  0
 29 30  1  0  0  0  0
 30 31  1  0  0  0  0
 30 33  1  0  0  0  0
 33 34  1  0  0  0  0
 33 35  1  0  0  0  0
 33 36  1  0  0  0  0
 36 37  1  0  0  0  0
 36 38  1  0  0  0  0
 38 41  1  0  0  0  0
 38 46  2  0  0  0  0
 39 40  1  0  0  0  0
 39 41  1  0  0  0  0
 40 42  2  0  0  0  0
 40 47  1  0  0  0  0
 41 44  2  0  0  0  0
 42 43  1  0  0  0  0
 42 44  1  0  0  0  0
 44 45  1  0  0  0  0
M  END
>  <mseq>
1

>  <S>
-11.338865

>  <E_conf>
1.7939408

>  <E_place>
-118.95822

>  <E_score1>
-11.338865

$$$$

  MOE2010           3D

 47 50  0  0  1  0  0  0  0  0999 V2000
   13.2090   17.9660   21.3440 C   0  0  0  0  0  0  0  0  0  0  0  0
   13.4500   16.7310   21.5900 H   0  0  0  0  0  0  0  0  0  0  0  0
   14.1180   18.2850   20.5180 H   0  0  0  0  0  0  0  0  0  0  0  0
   12.4150   18.1280   21.1860 N   0  0  0  0  0  0  0  0  0  0  0  0
   13.5610   18.2580   22.0310 C   0  0  0  0  0  0  0  0  0  0  0  0
   14.5560   18.8470   21.9170 H   0  0  0  0  0  0  0  0  0  0  0  0
   14.2630   17.5700   22.6420 H   0  0  0  0  0  0  0  0  0  0  0  0
   11.9740   18.5810   21.7170 C   0  0  0  0  0  0  0  0  0  0  0  0
   13.1190   18.7100   22.5600 O   0  0  0  0  0  0  0  0  0  0  0  0
   12.3250   18.8720   22.4030 C   0  0  0  0  0  0  0  0  0  0  0  0
   11.6970   18.6390   23.3630 H   0  0  0  0  0  0  0  0  0  0  0  0
   12.1380   20.0180   22.5530 H   0  0  0  0  0  0  0  0  0  0  0  0
   11.3580   17.2540   19.1260 C   0  0  0  0  0  0  0  0  0  0  0  0
   11.6790   16.7320   19.6780 C   0  0  0  0  0  0  0  0  0  0  0  0
   12.5130   15.7810   19.6300 H   0  0  0  0  0  0  0  0  0  0  0  0
   11.3900   18.0680   19.2600 C   0  0  0  0  0  0  0  0  0  0  0  0
   10.7700   19.0070   18.8110 H   0  0  0  0  0  0  0  0  0  0  0  0
   12.0310   17.0230   20.3650 C   0  0  0  0  0  0  0  0  0  0  0  0
   11.2600   16.1820   21.0780 H   0  0  0  0  0  0  0  0  0  0  0  0
   11.7430   18.3590   19.9470 C   0  0  0  0  0  0  0  0  0  0  0  0
   11.8040   19.5640   19.7090 H   0  0  0  0  0  0  0  0  0  0  0  0
   12.0630   17.8360   20.4990 C   0  0  0  0  0  0  0  0  0  0  0  0
   11.1790   18.7420   21.5590 O   0  0  0  0  0  0  0  0  0  0  0  0
   11.0070   16.9640   18.4390 N   0  0  0  0  0  0  0  0  0  0  0  0
   10.9340   16.1680   18.2300 C   0  0  0  0  0  0  0  0  0  0  0  0
   10.6650   17.4150   17.8400 C   0  0  0  0  0  0  0  0  0  0  0  0
    9.5370   17.8480   18.4950 H   0  0  0  0  0  0  0  0  0  0  0  0
   11.4560   18.3900   17.3640 H   0  0  0  0  0  0  0  0  0  0  0  0
   10.5480   16.1300   17.5030 O   0  0  0  0  0  0  0  0  0  0  0  0
   10.3820   16.9010   17.2620 C   0  0  1  0  0  0  0  0  0  0  0  0
   11.5140   16.9220   16.5080 H   0  0  0  0  0  0  0  0  0  0  0  0
   11.2010   15.5250   18.6720 O   0  0  0  0  0  0  0  0  0  0  0  0
    9.9990   17.1190   16.5640 C   0  0  0  0  0  0  0  0  0  0  0  0
    9.3680   18.1650   16.9480 H   0  0  0  0  0  0  0  0  0  0  0  0
    8.8490   16.4950   16.5190 H   0  0  0  0  0  0  0  0  0  0  0  0
   10.4390   17.2940   15.8890 N   0  0  0  0  0  0  0  0  0  0  0  0
   10.0600   18.1620   15.3280 H   0  0  0  0  0  0  0  0  0  0  0  0
   10.6290   16.6970   15.3530 C   0  0  0  0  0  0  0  0  0  0  0  0
   11.0700   17.5930   14.2750 S   0  0  0  0  0  0  0  0  0  0  0  0
   11.5870   17.5270   13.6360 C   0  0  0  0  0  0  0  0  0  0  0  0
   11.0700   16.8730   14.6790 C   0  0  0  0  0  0  0  0  0  0  0  0
   11.9070   16.7660   13.6440 C   0  0  0  0  0  0  0  0  0  0  0  0
   12.6760   16.2410   12.9180 H   0  0  0  0  0  0  0  0  0  0  0  0
   11.5870   16.3620   14.2880 C   0  0  0  0  0  0  0  0  0  0  0  0
   11.9310   15.2470   14.2460 H   0  0  0  0  0  0  0  0  0  0  0  0
   10.3800   15.9230   15.4920 O   0  0  0  0  0  0  0  0  0  0  0  0
   11.7560   18.1170   13.0850 Cl  0  0  0  0  0  0  0  0  0  0  0  0
  1  2  1  0  0  0  0
  1  3  1  0  0  0  0
  1  4  1  0  0  0  0
  1  5  1  0  0  0  0
  4  8  1  0  0  0  0
  4 22  1  0  0  0  0
  5  6  1  0  0  0  0
  5  7  1  0  0  0  0
  5  9  1  0  0  0  0
  8 10  1  0  0  0  0
  8 23  2  0  0  0  0
  9 10  1  0  0  0  0
 10 11  1  0  0  0  0
 10 12  1  0  0  0  0
 13 14  2  0  0  0  0
 13 16  1  0  0  0  0
 13 24  1  0  0  0  0
 14 15  1  0  0  0  0
 14 18  1  0  0  0  0
 16 17  1  0  0  0  0
 16 20  2  0  0  0  0
 18 19  1  0  0  0  0
 18 22  2  0  0  0  0
 20 21  1  0  0  0  0
 20 22  1  0  0  0  0
 24 25  1  0  0  0  0
 24 26  1  0  0  0  0
 25 29  1  0  0  0  0
 25 32  2  0  0  0  0
 26 27  1  0  0  0  0
 26 28  1  0  0  0  0
 26 30  1  0  0  0  0
 29 30  1  0  0  0  0
 30 31  1  0  0  0  0
 30 33  1  0  0  0  0
 33 34  1  0  0  0  0
 33 35  1  0  0  0  0
 33 36  1  0  0  0  0
 36 37  1  0  0  0  0
 36 38  1  0  0  0  0
 38 41  1  0  0  0  0
 38 46  2  0  0  0  0
 39 40  1  0  0  0  0
 39 41  1  0  0  0  0
 40 42  2  0  0  0  0
 40 47  1  0  0  0  0
 41 44  2  0  0  0  0
 42 43  1  0  0  0  0
 42 44  1  0  0  0  0
 44 45  1  0  0  0  0
M  END
>  <mseq>
1

>  <S>
-11.319639

>  <E_conf>
2.1883023

>  <E_place>
-120.07607

>  <E_score1>
-11.319639

$$$$

  MOE2010           3D

 47 50  0  0  1  0  0  0  0  0999 V2000
   11.7870   17.5230   20.5530 C   0  0  0  0  0  0  0  0  0  0  0  0
   10.6430   17.1920   21.0280 H   0  0  0  0  0  0  0  0  0  0  0  0
   12.4830   16.4720   20.7010 H   0  0  0  0  0  0  0  0  0  0  0  0
   11.7490   17.9090   19.8250 N   0  0  0  0  0  0  0  0  0  0  0  0
   12.0400   17.9310   21.2240 C   0  0  0  0  0  0  0  0  0  0  0  0
   12.8910   17.4540   21.8550 H   0  0  0  0  0  0  0  0  0  0  0  0
   11.4760   17.7800   22.2230 H   0  0  0  0  0  0  0  0  0  0  0  0
   11.9630   18.7040   19.7680 C   0  0  0  0  0  0  0  0  0  0  0  0
   12.2540   18.7260   21.1660 O   0  0  0  0  0  0  0  0  0  0  0  0
   12.2150   19.1120   20.4380 C   0  0  0  0  0  0  0  0  0  0  0  0
   11.6550   20.1300   20.5820 H   0  0  0  0  0  0  0  0  0  0  0  0
   13.2210   19.6860   20.2630 H   0  0  0  0  0  0  0  0  0  0  0  0
   10.9910   16.6840   17.8120 C   0  0  0  0  0  0  0  0  0  0  0  0
   11.2050   17.4790   17.7550 C   0  0  0  0  0  0  0  0  0  0  0  0
   10.6510   18.5240   17.3040 H   0  0  0  0  0  0  0  0  0  0  0  0
   11.0290   16.2980   18.5400 C   0  0  0  0  0  0  0  0  0  0  0  0
   11.0740   15.1290   18.8570 H   0  0  0  0  0  0  0  0  0  0  0  0
   11.4580   17.8870   18.4260 C   0  0  0  0  0  0  0  0  0  0  0  0
   12.5430   18.2820   17.7370 H   0  0  0  0  0  0  0  0  0  0  0  0
   11.2820   16.7060   19.2110 C   0  0  0  0  0  0  0  0  0  0  0  0
   11.0080   15.9120   20.1090 H   0  0  0  0  0  0  0  0  0  0  0  0
   11.4960   17.5010   19.1530 C   0  0  0  0  0  0  0  0  0  0  0  0
   11.9240   19.0900   19.0390 O   0  0  0  0  0  0  0  0  0  0  0  0
   10.7390   16.2760   17.1420 N   0  0  0  0  0  0  0  0  0  0  0  0
   10.2040   15.6470   17.1290 C   0  0  0  0  0  0  0  0  0  0  0  0
   10.9750   16.4230   16.3650 C   0  0  0  0  0  0  0  0  0  0  0  0
   10.3260   17.6150   16.1510 H   0  0  0  0  0  0  0  0  0  0  0  0
   12.3060   16.4610   16.1930 H   0  0  0  0  0  0  0  0  0  0  0  0
   10.1110   15.4070   16.3460 O   0  0  0  0  0  0  0  0  0  0  0  0
   10.5880   15.8870   15.8740 C   0  0  1  0  0  0  0  0  0  0  0  0
   11.5770   14.9520   15.9030 H   0  0  0  0  0  0  0  0  0  0  0  0
    9.8280   15.3170   17.7850 O   0  0  0  0  0  0  0  0  0  0  0  0
   10.6640   15.8380   15.0530 C   0  0  0  0  0  0  0  0  0  0  0  0
    9.5320   15.3320   14.7330 H   0  0  0  0  0  0  0  0  0  0  0  0
   11.2130   14.6850   14.7640 H   0  0  0  0  0  0  0  0  0  0  0  0
   10.7960   16.5200   14.6100 N   0  0  0  0  0  0  0  0  0  0  0  0
   10.2240   16.5550   13.6700 H   0  0  0  0  0  0  0  0  0  0  0  0
   11.5680   16.7720   14.4590 C   0  0  0  0  0  0  0  0  0  0  0  0
   11.4540   17.5820   13.2370 S   0  0  0  0  0  0  0  0  0  0  0  0
   11.7010   18.3360   13.0120 C   0  0  0  0  0  0  0  0  0  0  0  0
   11.6990   17.4550   14.0160 C   0  0  0  0  0  0  0  0  0  0  0  0
   12.0990   18.6750   13.6510 C   0  0  0  0  0  0  0  0  0  0  0  0
   12.6210   19.7280   13.7680 H   0  0  0  0  0  0  0  0  0  0  0  0
   12.0970   18.1310   14.2710 C   0  0  0  0  0  0  0  0  0  0  0  0
   12.7600   18.5420   15.1390 H   0  0  0  0  0  0  0  0  0  0  0  0
   12.2070   16.3410   14.7510 O   0  0  0  0  0  0  0  0  0  0  0  0
   11.5740   18.6890   12.2780 Cl  0  0  0  0  0  0  0  0  0  0  0  0
  1  2  1  0  0  0  0
  1  3  1  0  0  0  0
  1  4  1  0  0  0  0
  1  5  1  0  0  0  0
  4  8  1  0  0  0  0
  4 22  1  0  0  0  0
  5  6  1  0  0  0  0
  5  7  1  0  0  0  0
  5  9  1  0  0  0  0
  8 10  1  0  0  0  0
  8 23  2  0  0  0  0
  9 10  1  0  0  0  0
 10 11  1  0  0  0  0
 10 12  1  0  0  0  0
 13 14  2  0  0  0  0
 13 16  1  0  0  0  0
 13 24  1  0  0  0  0
 14 15  1  0  0  0  0
 14 18  1  0  0  0  0
 16 17  1  0  0  0  0
 16 20  2  0  0  0  0
 18 19  1  0  0  0  0
 18 22  2  0  0  0  0
 20 21  1  0  0  0  0
 20 22  1  0  0  0  0
 24 25  1  0  0  0  0
 24 26  1  0  0  0  0
 25 29  1  0  0  0  0
 25 32  2  0  0  0  0
 26 27  1  0  0  0  0
 26 28  1  0  0  0  0
 26 30  1  0  0  0  0
 29 30  1  0  0  0  0
 30 31  1  0  0  0  0
 30 33  1  0  0  0  0
 33 34  1  0  0  0  0
 33 35  1  0  0  0  0
 33 36  1  0  0  0  0
 36 37  1  0  0  0  0
 36 38  1  0  0  0  0
 38 41  1  0  0  0  0
 38 46  2  0  0  0  0
 39 40  1  0  0  0  0
 39 41  1  0  0  0  0
 40 42  2  0  0  0  0
 40 47  1  0  0  0  0
 41 44  2  0  0  0  0
 42 43  1  0  0  0  0
 42 44  1  0  0  0  0
 44 45  1  0  0  0  0
M  END
>  <mseq>
1

>  <S>
-11.308575

>  <E_conf>
0.8403511

>  <E_place>
-151.7292

>  <E_score1>
-11.308575

$$$$

  MOE2010           3D

 47 50  0  0  1  0  0  0  0  0999 V2000
   15.1800   20.8370   13.2160 C   0  0  0  0  0  0  0  0  0  0  0  0
   15.5030   20.7090   14.4510 H   0  0  0  0  0  0  0  0  0  0  0  0
   15.7410   19.8450   12.6600 H   0  0  0  0  0  0  0  0  0  0  0  0
   14.3800   20.9980   13.0940 N   0  0  0  0  0  0  0  0  0  0  0  0
   15.7470   21.4110   13.0420 C   0  0  0  0  0  0  0  0  0  0  0  0
   16.6350   21.0990   12.3590 H   0  0  0  0  0  0  0  0  0  0  0  0
   16.6240   21.5800   13.7780 H   0  0  0  0  0  0  0  0  0  0  0  0
   14.1480   21.7320   12.7970 C   0  0  0  0  0  0  0  0  0  0  0  0
   15.5140   22.1440   12.7460 O   0  0  0  0  0  0  0  0  0  0  0  0
   14.7140   22.3050   12.6230 C   0  0  0  0  0  0  0  0  0  0  0  0
   14.4630   23.3440   13.1000 H   0  0  0  0  0  0  0  0  0  0  0  0
   14.5810   22.7580   11.5520 H   0  0  0  0  0  0  0  0  0  0  0  0
   12.6790   19.2770   13.6160 C   0  0  0  0  0  0  0  0  0  0  0  0
   12.4460   20.0120   13.3200 C   0  0  0  0  0  0  0  0  0  0  0  0
   11.6270   20.9050   13.6870 H   0  0  0  0  0  0  0  0  0  0  0  0
   13.4790   19.1170   13.7380 C   0  0  0  0  0  0  0  0  0  0  0  0
   14.1090   18.0890   13.8610 H   0  0  0  0  0  0  0  0  0  0  0  0
   13.0130   20.5850   13.1460 C   0  0  0  0  0  0  0  0  0  0  0  0
   12.4600   20.7150   11.9260 H   0  0  0  0  0  0  0  0  0  0  0  0
   14.0460   19.6900   13.5640 C   0  0  0  0  0  0  0  0  0  0  0  0
   15.0600   19.2030   14.0610 H   0  0  0  0  0  0  0  0  0  0  0  0
   13.8130   20.4240   13.2680 C   0  0  0  0  0  0  0  0  0  0  0  0
   13.3470   21.8920   12.6750 O   0  0  0  0  0  0  0  0  0  0  0  0
   12.1120   18.7040   13.7900 N   0  0  0  0  0  0  0  0  0  0  0  0
   11.2960   18.7850   13.6970 C   0  0  0  0  0  0  0  0  0  0  0  0
   12.2600   17.9500   14.0880 C   0  0  0  0  0  0  0  0  0  0  0  0
   12.8190   17.3700   12.9740 H   0  0  0  0  0  0  0  0  0  0  0  0
   13.0320   17.9320   15.1870 H   0  0  0  0  0  0  0  0  0  0  0  0
   10.9410   18.0800   13.9370 O   0  0  0  0  0  0  0  0  0  0  0  0
   11.5370   17.5640   14.1790 C   0  0  1  0  0  0  0  0  0  0  0  0
   11.3550   17.9410   15.4740 H   0  0  0  0  0  0  0  0  0  0  0  0
   10.9040   19.4530   13.4130 O   0  0  0  0  0  0  0  0  0  0  0  0
   11.4290   16.7960   14.4620 C   0  0  0  0  0  0  0  0  0  0  0  0
   12.4850   16.2230   14.0190 H   0  0  0  0  0  0  0  0  0  0  0  0
   10.7440   16.1270   13.5690 H   0  0  0  0  0  0  0  0  0  0  0  0
   11.3610   16.6610   15.2720 N   0  0  0  0  0  0  0  0  0  0  0  0
   11.9020   15.7670   15.6180 H   0  0  0  0  0  0  0  0  0  0  0  0
   10.6190   16.6760   15.6320 C   0  0  0  0  0  0  0  0  0  0  0  0
   10.7830   15.8550   16.8410 S   0  0  0  0  0  0  0  0  0  0  0  0
   10.6160   15.9570   17.6420 C   0  0  0  0  0  0  0  0  0  0  0  0
   10.5510   16.5410   16.4430 C   0  0  0  0  0  0  0  0  0  0  0  0
   10.2810   16.7050   17.7400 C   0  0  0  0  0  0  0  0  0  0  0  0
    9.8860   17.2570   18.7070 H   0  0  0  0  0  0  0  0  0  0  0  0
   10.2410   17.0650   16.9990 C   0  0  0  0  0  0  0  0  0  0  0  0
    9.6580   18.0720   17.0980 H   0  0  0  0  0  0  0  0  0  0  0  0
    9.9450   16.8270   15.1820 O   0  0  0  0  0  0  0  0  0  0  0  0
   10.7580   15.4080   18.2410 Cl  0  0  0  0  0  0  0  0  0  0  0  0
  1  2  1  0  0  0  0
  1  3  1  0  0  0  0
  1  4  1  0  0  0  0
  1  5  1  0  0  0  0
  4  8  1  0  0  0  0
  4 22  1  0  0  0  0
  5  6  1  0  0  0  0
  5  7  1  0  0  0  0
  5  9  1  0  0  0  0
  8 10  1  0  0  0  0
  8 23  2  0  0  0  0
  9 10  1  0  0  0  0
 10 11  1  0  0  0  0
 10 12  1  0  0  0  0
 13 14  2  0  0  0  0
 13 16  1  0  0  0  0
 13 24  1  0  0  0  0
 14 15  1  0  0  0  0
 14 18  1  0  0  0  0
 16 17  1  0  0  0  0
 16 20  2  0  0  0  0
 18 19  1  0  0  0  0
 18 22  2  0  0  0  0
 20 21  1  0  0  0  0
 20 22  1  0  0  0  0
 24 25  1  0  0  0  0
 24 26  1  0  0  0  0
 25 29  1  0  0  0  0
 25 32  2  0  0  0  0
 26 27  1  0  0  0  0
 26 28  1  0  0  0  0
 26 30  1  0  0  0  0
 29 30  1  0  0  0  0
 30 31  1  0  0  0  0
 30 33  1  0  0  0  0
 33 34  1  0  0  0  0
 33 35  1  0  0  0  0
 33 36  1  0  0  0  0
 36 37  1  0  0  0  0
 36 38  1  0  0  0  0
 38 41  1  0  0  0  0
 38 46  2  0  0  0  0
 39 40  1  0  0  0  0
 39 41  1  0  0  0  0
 40 42  2  0  0  0  0
 40 47  1  0  0  0  0
 41 44  2  0  0  0  0
 42 43  1  0  0  0  0
 42 44  1  0  0  0  0
 44 45  1  0  0  0  0
M  END
>  <mseq>
1

>  <S>
-11.305819

>  <E_conf>
1.2014041

>  <E_place>
-118.50065

>  <E_score1>
-11.305819

$$$$

  MOE2010           3D

 47 50  0  0  1  0  0  0  0  0999 V2000
   12.9400   17.7860   20.4970 C   0  0  0  0  0  0  0  0  0  0  0  0
   13.4380   16.7520   19.9240 H   0  0  0  0  0  0  0  0  0  0  0  0
   13.8140   18.6830   20.2970 H   0  0  0  0  0  0  0  0  0  0  0  0
   12.1450   17.9180   20.3190 N   0  0  0  0  0  0  0  0  0  0  0  0
   13.1600   17.5700   21.2630 C   0  0  0  0  0  0  0  0  0  0  0  0
   14.0000   18.1890   21.7760 H   0  0  0  0  0  0  0  0  0  0  0  0
   13.9510   16.7370   21.4100 H   0  0  0  0  0  0  0  0  0  0  0  0
   11.5720   17.8340   20.9060 C   0  0  0  0  0  0  0  0  0  0  0  0
   12.5860   17.4860   21.8490 O   0  0  0  0  0  0  0  0  0  0  0  0
   11.7920   17.6180   21.6700 C   0  0  0  0  0  0  0  0  0  0  0  0
   11.1600   16.7240   22.0840 H   0  0  0  0  0  0  0  0  0  0  0  0
   11.3350   18.3240   22.4850 H   0  0  0  0  0  0  0  0  0  0  0  0
   11.4840   18.5660   18.0230 C   0  0  0  0  0  0  0  0  0  0  0  0
   11.1870   17.8730   18.3590 C   0  0  0  0  0  0  0  0  0  0  0  0
   11.1430   16.6580   18.0070 H   0  0  0  0  0  0  0  0  0  0  0  0
   12.0020   19.0430   18.4530 C   0  0  0  0  0  0  0  0  0  0  0  0
   12.3390   20.2030   18.3520 H   0  0  0  0  0  0  0  0  0  0  0  0
   11.4070   17.6570   19.1230 C   0  0  0  0  0  0  0  0  0  0  0  0
   10.1030   17.5180   19.4240 H   0  0  0  0  0  0  0  0  0  0  0  0
   12.2230   18.8270   19.2190 C   0  0  0  0  0  0  0  0  0  0  0  0
   13.1350   19.6170   19.4520 H   0  0  0  0  0  0  0  0  0  0  0  0
   11.9250   18.1340   19.5530 C   0  0  0  0  0  0  0  0  0  0  0  0
   10.7770   17.9670   20.7260 O   0  0  0  0  0  0  0  0  0  0  0  0
   11.2640   18.7820   17.2590 N   0  0  0  0  0  0  0  0  0  0  0  0
   10.7530   18.3630   16.7640 C   0  0  0  0  0  0  0  0  0  0  0  0
   11.5150   19.4550   16.8520 C   0  0  0  0  0  0  0  0  0  0  0  0
   10.8280   20.4150   17.5560 H   0  0  0  0  0  0  0  0  0  0  0  0
   12.8480   19.6160   16.8230 H   0  0  0  0  0  0  0  0  0  0  0  0
   10.6890   18.7770   16.0540 O   0  0  0  0  0  0  0  0  0  0  0  0
   11.1600   19.4520   16.1090 C   0  0  1  0  0  0  0  0  0  0  0  0
   12.1810   18.8050   15.4840 H   0  0  0  0  0  0  0  0  0  0  0  0
   10.3740   17.6540   16.9480 O   0  0  0  0  0  0  0  0  0  0  0  0
   11.2590   20.0240   15.5220 C   0  0  0  0  0  0  0  0  0  0  0  0
   11.4010   21.0800   16.2320 H   0  0  0  0  0  0  0  0  0  0  0  0
   10.0740   20.4650   15.1810 H   0  0  0  0  0  0  0  0  0  0  0  0
   11.8840   19.9640   14.9890 N   0  0  0  0  0  0  0  0  0  0  0  0
   12.8580   19.7810   15.4680 H   0  0  0  0  0  0  0  0  0  0  0  0
   11.9830   20.5360   14.4020 C   0  0  0  0  0  0  0  0  0  0  0  0
   13.2110   21.0310   13.7630 S   0  0  0  0  0  0  0  0  0  0  0  0
   13.7180   20.7490   13.1770 C   0  0  0  0  0  0  0  0  0  0  0  0
   12.6090   20.4760   13.8690 C   0  0  0  0  0  0  0  0  0  0  0  0
   13.4300   20.0190   12.9200 C   0  0  0  0  0  0  0  0  0  0  0  0
   13.8320   19.2740   12.0960 H   0  0  0  0  0  0  0  0  0  0  0  0
   12.7450   19.8510   13.3470 C   0  0  0  0  0  0  0  0  0  0  0  0
   12.2540   18.8840   12.9130 H   0  0  0  0  0  0  0  0  0  0  0  0
   11.4560   21.1680   14.3490 O   0  0  0  0  0  0  0  0  0  0  0  0
   14.3950   21.1280   12.8960 Cl  0  0  0  0  0  0  0  0  0  0  0  0
  1  2  1  0  0  0  0
  1  3  1  0  0  0  0
  1  4  1  0  0  0  0
  1  5  1  0  0  0  0
  4  8  1  0  0  0  0
  4 22  1  0  0  0  0
  5  6  1  0  0  0  0
  5  7  1  0  0  0  0
  5  9  1  0  0  0  0
  8 10  1  0  0  0  0
  8 23  2  0  0  0  0
  9 10  1  0  0  0  0
 10 11  1  0  0  0  0
 10 12  1  0  0  0  0
 13 14  2  0  0  0  0
 13 16  1  0  0  0  0
 13 24  1  0  0  0  0
 14 15  1  0  0  0  0
 14 18  1  0  0  0  0
 16 17  1  0  0  0  0
 16 20  2  0  0  0  0
 18 19  1  0  0  0  0
 18 22  2  0  0  0  0
 20 21  1  0  0  0  0
 20 22  1  0  0  0  0
 24 25  1  0  0  0  0
 24 26  1  0  0  0  0
 25 29  1  0  0  0  0
 25 32  2  0  0  0  0
 26 27  1  0  0  0  0
 26 28  1  0  0  0  0
 26 30  1  0  0  0  0
 29 30  1  0  0  0  0
 30 31  1  0  0  0  0
 30 33  1  0  0  0  0
 33 34  1  0  0  0  0
 33 35  1  0  0  0  0
 33 36  1  0  0  0  0
 36 37  1  0  0  0  0
 36 38  1  0  0  0  0
 38 41  1  0  0  0  0
 38 46  2  0  0  0  0
 39 40  1  0  0  0  0
 39 41  1  0  0  0  0
 40 42  2  0  0  0  0
 40 47  1  0  0  0  0
 41 44  2  0  0  0  0
 42 43  1  0  0  0  0
 42 44  1  0  0  0  0
 44 45  1  0  0  0  0
M  END
>  <mseq>
1

>  <S>
-11.289018

>  <E_conf>
3.786407

>  <E_place>
-122.18465

>  <E_score1>
-11.289018

$$$$
